
     RDKit          3D

 35 35  0  0  0  0  0  0  0  0999 V2000
   -2.7093    2.0913    1.5598 C   0  0  0  0  0  0  0  0  0  0  0  0
   -1.6611    2.4174    2.6128 C   0  0  0  0  0  0  0  0  0  0  0  0
   -0.3517    1.6462    2.4260 C   0  0  0  0  0  0  0  0  0  0  0  0
   -0.5072    0.1354    2.6361 C   0  0  0  0  0  0  0  0  0  0  0  0
    0.8357   -0.6295    2.6169 C   0  0  1  0  0  0  0  0  0  0  0  0
    0.5830   -2.0239    3.0196 N   0  0  0  0  0  0  0  0  0  0  0  0
    1.6350   -0.4907    1.2767 C   0  0  1  0  0  0  0  0  0  0  0  0
    2.9452   -1.2937    1.2950 C   0  0  0  0  0  0  0  0  0  0  0  0
    0.8600   -0.7902   -0.0005 C   0  0  0  0  0  0  0  0  0  0  0  0
    0.7840    0.1815   -1.0122 C   0  0  0  0  0  0  0  0  0  0  0  0
    0.0861   -0.0687   -2.1956 C   0  0  0  0  0  0  0  0  0  0  0  0
   -0.5415   -1.2963   -2.3887 C   0  0  0  0  0  0  0  0  0  0  0  0
   -0.4685   -2.2739   -1.3999 C   0  0  0  0  0  0  0  0  0  0  0  0
    0.2297   -2.0237   -0.2163 C   0  0  0  0  0  0  0  0  0  0  0  0
   -3.5810    2.7418    1.6839 H   0  0  0  0  0  0  0  0  0  0  0  0
   -3.0544    1.0567    1.6437 H   0  0  0  0  0  0  0  0  0  0  0  0
   -2.3137    2.2438    0.5506 H   0  0  0  0  0  0  0  0  0  0  0  0
   -2.0717    2.2234    3.6104 H   0  0  0  0  0  0  0  0  0  0  0  0
   -1.4413    3.4907    2.5641 H   0  0  0  0  0  0  0  0  0  0  0  0
    0.3801    2.0329    3.1457 H   0  0  0  0  0  0  0  0  0  0  0  0
    0.0430    1.8584    1.4273 H   0  0  0  0  0  0  0  0  0  0  0  0
   -1.1861   -0.2814    1.8833 H   0  0  0  0  0  0  0  0  0  0  0  0
   -0.9927   -0.0233    3.6088 H   0  0  0  0  0  0  0  0  0  0  0  0
    1.4662   -0.1994    3.4073 H   0  0  0  0  0  0  0  0  0  0  0  0
    1.4683   -2.5001    3.1850 H   0  0  0  0  0  0  0  0  0  0  0  0
    0.0826   -2.0385    3.9075 H   0  0  0  0  0  0  0  0  0  0  0  0
    1.9476    0.5621    1.2287 H   0  0  0  0  0  0  0  0  0  0  0  0
    3.5341   -1.0545    2.1869 H   0  0  0  0  0  0  0  0  0  0  0  0
    3.5580   -1.0539    0.4182 H   0  0  0  0  0  0  0  0  0  0  0  0
    2.7707   -2.3749    1.2814 H   0  0  0  0  0  0  0  0  0  0  0  0
    1.2688    1.1468   -0.8858 H   0  0  0  0  0  0  0  0  0  0  0  0
    0.0337    0.6953   -2.9665 H   0  0  0  0  0  0  0  0  0  0  0  0
   -1.0855   -1.4922   -3.3084 H   0  0  0  0  0  0  0  0  0  0  0  0
   -0.9558   -3.2341   -1.5460 H   0  0  0  0  0  0  0  0  0  0  0  0
    0.2716   -2.8039    0.5400 H   0  0  0  0  0  0  0  0  0  0  0  0
  1  2  1  0
  2  3  1  0
  3  4  1  0
  4  5  1  0
  5  6  1  0
  5  7  1  0
  7  8  1  0
  7  9  1  0
  9 10  2  0
 10 11  1  0
 11 12  2  0
 12 13  1  0
 13 14  2  0
 14  9  1  0
  1 15  1  0
  1 16  1  0
  1 17  1  0
  2 18  1  0
  2 19  1  0
  3 20  1  0
  3 21  1  0
  4 22  1  0
  4 23  1  0
  5 24  1  1
  6 25  1  0
  6 26  1  0
  7 27  1  6
  8 28  1  0
  8 29  1  0
  8 30  1  0
 10 31  1  0
 11 32  1  0
 12 33  1  0
 13 34  1  0
 14 35  1  0
M  END
