
     RDKit          3D

 40 39  0  0  0  0  0  0  0  0999 V2000
    2.3304    1.4470    3.5280 C   0  0  0  0  0  0  0  0  0  0  0  0
    2.1700    0.0433    2.9513 C   0  0  0  0  0  0  0  0  0  0  0  0
    0.8259   -0.5606    3.3643 C   0  0  0  0  0  0  0  0  0  0  0  0
    2.4545   -0.0742    1.4352 C   0  0  0  0  0  0  0  0  0  0  0  0
    1.8389    0.9078    0.4106 C   0  0  2  0  0  0  0  0  0  0  0  0
    2.3727    2.2624    0.5643 N   0  0  0  0  0  0  0  0  0  0  0  0
    0.3423    0.9908    0.4461 C   0  0  0  0  0  0  0  0  0  0  0  0
   -0.5391    0.5827   -0.4865 C   0  0  0  0  0  0  0  0  0  0  0  0
   -0.2988   -0.0378   -1.8347 C   0  0  1  0  0  0  0  0  0  0  0  0
    0.6587    0.7700   -2.5969 N   0  0  0  0  0  0  0  0  0  0  0  0
    0.1765   -1.5054   -1.8022 C   0  0  0  0  0  0  0  0  0  0  0  0
   -0.7948   -2.5668   -1.2365 C   0  0  0  0  0  0  0  0  0  0  0  0
   -2.1903   -2.4879   -1.8539 C   0  0  0  0  0  0  0  0  0  0  0  0
   -0.8800   -2.5663    0.2886 C   0  0  0  0  0  0  0  0  0  0  0  0
    1.5364    2.1204    3.1927 H   0  0  0  0  0  0  0  0  0  0  0  0
    3.2991    1.8767    3.2528 H   0  0  0  0  0  0  0  0  0  0  0  0
    2.2867    1.4148    4.6222 H   0  0  0  0  0  0  0  0  0  0  0  0
    2.9334   -0.5805    3.4388 H   0  0  0  0  0  0  0  0  0  0  0  0
   -0.0243    0.0412    3.0366 H   0  0  0  0  0  0  0  0  0  0  0  0
    0.7646   -0.6366    4.4560 H   0  0  0  0  0  0  0  0  0  0  0  0
    0.7089   -1.5718    2.9612 H   0  0  0  0  0  0  0  0  0  0  0  0
    3.5468   -0.0192    1.3137 H   0  0  0  0  0  0  0  0  0  0  0  0
    2.1926   -1.0947    1.1218 H   0  0  0  0  0  0  0  0  0  0  0  0
    2.1765    0.5546   -0.5684 H   0  0  0  0  0  0  0  0  0  0  0  0
    3.3878    2.2214    0.4951 H   0  0  0  0  0  0  0  0  0  0  0  0
    2.0671    2.8021   -0.2456 H   0  0  0  0  0  0  0  0  0  0  0  0
   -0.0698    1.4583    1.3384 H   0  0  0  0  0  0  0  0  0  0  0  0
   -1.5935    0.7271   -0.2499 H   0  0  0  0  0  0  0  0  0  0  0  0
   -1.2417    0.0121   -2.3919 H   0  0  0  0  0  0  0  0  0  0  0  0
    0.2888    1.7156   -2.6807 H   0  0  0  0  0  0  0  0  0  0  0  0
    0.7237    0.4059   -3.5455 H   0  0  0  0  0  0  0  0  0  0  0  0
    0.3975   -1.8079   -2.8365 H   0  0  0  0  0  0  0  0  0  0  0  0
    1.1323   -1.5813   -1.2673 H   0  0  0  0  0  0  0  0  0  0  0  0
   -0.3737   -3.5417   -1.5193 H   0  0  0  0  0  0  0  0  0  0  0  0
   -2.7885   -3.3584   -1.5621 H   0  0  0  0  0  0  0  0  0  0  0  0
   -2.7297   -1.5936   -1.5261 H   0  0  0  0  0  0  0  0  0  0  0  0
   -2.1331   -2.4746   -2.9475 H   0  0  0  0  0  0  0  0  0  0  0  0
    0.1185   -2.5933    0.7354 H   0  0  0  0  0  0  0  0  0  0  0  0
   -1.4205   -3.4530    0.6383 H   0  0  0  0  0  0  0  0  0  0  0  0
   -1.4120   -1.6933    0.6758 H   0  0  0  0  0  0  0  0  0  0  0  0
  1  2  1  0
  2  3  1  0
  2  4  1  0
  4  5  1  0
  5  6  1  0
  5  7  1  0
  7  8  2  0
  8  9  1  0
  9 10  1  0
  9 11  1  0
 11 12  1  0
 12 13  1  0
 12 14  1  0
  1 15  1  0
  1 16  1  0
  1 17  1  0
  2 18  1  0
  3 19  1  0
  3 20  1  0
  3 21  1  0
  4 22  1  0
  4 23  1  0
  5 24  1  6
  6 25  1  0
  6 26  1  0
  7 27  1  0
  8 28  1  0
  9 29  1  6
 10 30  1  0
 10 31  1  0
 11 32  1  0
 11 33  1  0
 12 34  1  0
 13 35  1  0
 13 36  1  0
 13 37  1  0
 14 38  1  0
 14 39  1  0
 14 40  1  0
M  END
