
     RDKit          3D

 50 51  0  0  0  0  0  0  0  0999 V2000
   -2.2601   -0.2866    4.6238 C   0  0  0  0  0  0  0  0  0  0  0  0
   -1.2283   -1.4038    4.6176 C   0  0  0  0  0  0  0  0  0  0  0  0
   -1.3321   -2.3261    3.4001 C   0  0  0  0  0  0  0  0  0  0  0  0
   -1.1697   -1.6431    2.0325 C   0  0  0  0  0  0  0  0  0  0  0  0
    0.1463   -0.8610    1.8186 C   0  0  1  0  0  0  0  0  0  0  0  0
    1.2779   -1.7708    2.0445 N   0  0  0  0  0  0  0  0  0  0  0  0
    0.2226   -0.2045    0.3914 C   0  0  1  0  0  0  0  0  0  0  0  0
   -0.9836    0.7090    0.1068 C   0  0  0  0  0  0  0  0  0  0  0  0
    1.5103    0.6032    0.1709 C   0  0  0  0  0  0  0  0  0  0  0  0
    2.4308    0.3692   -0.8776 C   0  0  0  0  0  0  0  0  0  0  0  0
    3.5916    1.1675   -0.9671 C   0  0  0  0  0  0  0  0  0  0  0  0
    3.8412    2.1973   -0.0625 C   0  0  0  0  0  0  0  0  0  0  0  0
    2.9323    2.4495    0.9526 C   0  0  0  0  0  0  0  0  0  0  0  0
    1.7845    1.6650    1.0660 C   0  0  0  0  0  0  0  0  0  0  0  0
    2.2991   -0.8999   -2.1777 S   0  0  0  0  0  4  0  0  0  0  0  0
    1.8240   -2.1585   -1.5181 O   0  0  0  0  0  0  0  0  0  0  0  0
    0.8680   -0.1780   -3.0204 C   0  0  0  0  0  0  0  0  0  0  0  0
   -0.2994   -0.9299   -3.1961 C   0  0  0  0  0  0  0  0  0  0  0  0
   -1.3992   -0.3888   -3.8665 C   0  0  0  0  0  0  0  0  0  0  0  0
   -1.3402    0.9052   -4.3950 C   0  0  0  0  0  0  0  0  0  0  0  0
   -2.5347    1.4984   -5.0816 C   0  0  0  0  0  0  0  0  0  0  0  0
   -0.1709    1.6554   -4.2275 C   0  0  0  0  0  0  0  0  0  0  0  0
    0.9296    1.1138   -3.5568 C   0  0  0  0  0  0  0  0  0  0  0  0
   -2.2007    0.2746    5.5621 H   0  0  0  0  0  0  0  0  0  0  0  0
   -2.0921    0.4195    3.8053 H   0  0  0  0  0  0  0  0  0  0  0  0
   -3.2744   -0.6879    4.5332 H   0  0  0  0  0  0  0  0  0  0  0  0
   -0.2236   -0.9736    4.6881 H   0  0  0  0  0  0  0  0  0  0  0  0
   -1.3673   -2.0105    5.5207 H   0  0  0  0  0  0  0  0  0  0  0  0
   -0.5914   -3.1281    3.5024 H   0  0  0  0  0  0  0  0  0  0  0  0
   -2.3113   -2.8218    3.4177 H   0  0  0  0  0  0  0  0  0  0  0  0
   -1.2614   -2.4140    1.2555 H   0  0  0  0  0  0  0  0  0  0  0  0
   -2.0253   -0.9737    1.8939 H   0  0  0  0  0  0  0  0  0  0  0  0
    0.2014   -0.0664    2.5708 H   0  0  0  0  0  0  0  0  0  0  0  0
    1.3990   -1.9452    3.0392 H   0  0  0  0  0  0  0  0  0  0  0  0
    2.1444   -1.3494    1.7117 H   0  0  0  0  0  0  0  0  0  0  0  0
    0.1614   -1.0215   -0.3276 H   0  0  0  0  0  0  0  0  0  0  0  0
   -1.9002    0.1242   -0.0182 H   0  0  0  0  0  0  0  0  0  0  0  0
   -1.1495    1.4253    0.9189 H   0  0  0  0  0  0  0  0  0  0  0  0
   -0.8447    1.2819   -0.8164 H   0  0  0  0  0  0  0  0  0  0  0  0
    4.3204    0.9876   -1.7560 H   0  0  0  0  0  0  0  0  0  0  0  0
    4.7416    2.7991   -0.1532 H   0  0  0  0  0  0  0  0  0  0  0  0
    3.1129    3.2540    1.6611 H   0  0  0  0  0  0  0  0  0  0  0  0
    1.0915    1.8959    1.8732 H   0  0  0  0  0  0  0  0  0  0  0  0
   -0.3629   -1.9420   -2.7996 H   0  0  0  0  0  0  0  0  0  0  0  0
   -2.3013   -0.9876   -3.9734 H   0  0  0  0  0  0  0  0  0  0  0  0
   -2.2304    2.2479   -5.8201 H   0  0  0  0  0  0  0  0  0  0  0  0
   -3.0998    0.7268   -5.6156 H   0  0  0  0  0  0  0  0  0  0  0  0
   -3.1906    1.9740   -4.3454 H   0  0  0  0  0  0  0  0  0  0  0  0
   -0.1079    2.6678   -4.6208 H   0  0  0  0  0  0  0  0  0  0  0  0
    1.8287    1.7160   -3.4552 H   0  0  0  0  0  0  0  0  0  0  0  0
  1  2  1  0
  2  3  1  0
  3  4  1  0
  4  5  1  0
  5  6  1  0
  5  7  1  0
  7  8  1  0
  7  9  1  0
  9 10  2  0
 10 11  1  0
 11 12  2  0
 12 13  1  0
 13 14  2  0
 15 10  1  1
 15 16  2  0
 15 17  1  0
 17 18  2  0
 18 19  1  0
 19 20  2  0
 20 21  1  0
 20 22  1  0
 22 23  2  0
 14  9  1  0
 23 17  1  0
  1 24  1  0
  1 25  1  0
  1 26  1  0
  2 27  1  0
  2 28  1  0
  3 29  1  0
  3 30  1  0
  4 31  1  0
  4 32  1  0
  5 33  1  1
  6 34  1  0
  6 35  1  0
  7 36  1  6
  8 37  1  0
  8 38  1  0
  8 39  1  0
 11 40  1  0
 12 41  1  0
 13 42  1  0
 14 43  1  0
 18 44  1  0
 19 45  1  0
 21 46  1  0
 21 47  1  0
 21 48  1  0
 22 49  1  0
 23 50  1  0
M  END
