
     RDKit          3D

 19 18  0  0  0  0  0  0  0  0999 V2000
    1.6892    1.0986   -0.9836 C   0  0  0  0  0  0  0  0  0  0  0  0
    0.3982    0.5697   -0.3786 C   0  0  0  0  0  0  0  0  0  0  0  0
    0.5982   -0.4646    0.7497 C   0  0  2  0  0  0  0  0  0  0  0  0
   -0.7469   -0.9337    1.1328 N   0  0  0  0  0  0  0  0  0  0  0  0
    1.2900    0.1283    1.9818 C   0  0  0  0  0  0  0  0  0  0  0  0
    2.9662   -0.4420    2.1780 S   0  0  0  0  0  6  0  0  0  0  0  0
    2.8578   -2.4430    2.6129 Cl  0  0  0  0  0  0  0  0  0  0  0  0
    3.5167    0.1583    3.3766 O   0  0  0  0  0  0  0  0  0  0  0  0
    3.6660   -0.3769    0.9123 O   0  0  0  0  0  0  0  0  0  0  0  0
    2.2744    1.6649   -0.2538 H   0  0  0  0  0  0  0  0  0  0  0  0
    1.4624    1.7728   -1.8161 H   0  0  0  0  0  0  0  0  0  0  0  0
    2.3028    0.2813   -1.3744 H   0  0  0  0  0  0  0  0  0  0  0  0
   -0.1851    0.1141   -1.1899 H   0  0  0  0  0  0  0  0  0  0  0  0
   -0.1924    1.4192   -0.0112 H   0  0  0  0  0  0  0  0  0  0  0  0
    1.1455   -1.3242    0.3477 H   0  0  0  0  0  0  0  0  0  0  0  0
   -1.2565   -1.2456    0.3036 H   0  0  0  0  0  0  0  0  0  0  0  0
   -0.6828   -1.7541    1.7369 H   0  0  0  0  0  0  0  0  0  0  0  0
    1.3242    1.2224    1.9511 H   0  0  0  0  0  0  0  0  0  0  0  0
    0.7859   -0.1505    2.9154 H   0  0  0  0  0  0  0  0  0  0  0  0
  1  2  1  0
  2  3  1  0
  3  4  1  0
  3  5  1  0
  5  6  1  0
  6  7  1  0
  6  8  2  0
  6  9  2  0
  1 10  1  0
  1 11  1  0
  1 12  1  0
  2 13  1  0
  2 14  1  0
  3 15  1  6
  4 16  1  0
  4 17  1  0
  5 18  1  0
  5 19  1  0
M  END
