
     RDKit          3D

 24 24  0  0  0  0  0  0  0  0999 V2000
    1.1148    1.6082   -2.0717 C   0  0  0  0  0  0  0  0  0  0  0  0
    0.5311    0.8233   -0.8919 C   0  0  2  0  0  0  0  0  0  0  0  0
    1.4935    0.8744    0.2270 N   0  0  0  0  0  0  0  0  0  0  0  0
    0.1484   -0.6108   -1.3561 C   0  0  0  0  0  0  0  0  0  0  0  0
   -0.7385   -0.5262   -2.3894 F   0  0  0  0  0  0  0  0  0  0  0  0
   -0.5480   -1.6901   -0.0513 S   0  0  0  0  0  0  0  0  0  0  0  0
   -2.0026   -0.7642    0.3974 C   0  0  0  0  0  0  0  0  0  0  0  0
   -3.0643   -0.5987   -0.4968 C   0  0  0  0  0  0  0  0  0  0  0  0
   -4.1991    0.1222   -0.1186 C   0  0  0  0  0  0  0  0  0  0  0  0
   -4.2815    0.6743    1.1587 C   0  0  0  0  0  0  0  0  0  0  0  0
   -3.2317    0.5031    2.0595 C   0  0  0  0  0  0  0  0  0  0  0  0
   -2.0971   -0.2179    1.6812 C   0  0  0  0  0  0  0  0  0  0  0  0
    2.0352    1.1454   -2.4450 H   0  0  0  0  0  0  0  0  0  0  0  0
    0.3997    1.6538   -2.9001 H   0  0  0  0  0  0  0  0  0  0  0  0
    1.3468    2.6395   -1.7827 H   0  0  0  0  0  0  0  0  0  0  0  0
   -0.3789    1.3487   -0.5800 H   0  0  0  0  0  0  0  0  0  0  0  0
    2.3840    0.4659   -0.0551 H   0  0  0  0  0  0  0  0  0  0  0  0
    1.6877    1.8470    0.4646 H   0  0  0  0  0  0  0  0  0  0  0  0
    1.0371   -1.1193   -1.7451 H   0  0  0  0  0  0  0  0  0  0  0  0
   -3.0185   -1.0314   -1.4936 H   0  0  0  0  0  0  0  0  0  0  0  0
   -5.0194    0.2480   -0.8204 H   0  0  0  0  0  0  0  0  0  0  0  0
   -5.1657    1.2334    1.4537 H   0  0  0  0  0  0  0  0  0  0  0  0
   -3.2952    0.9282    3.0577 H   0  0  0  0  0  0  0  0  0  0  0  0
   -1.2842   -0.3439    2.3928 H   0  0  0  0  0  0  0  0  0  0  0  0
  1  2  1  0
  2  3  1  0
  2  4  1  0
  4  5  1  0
  4  6  1  0
  6  7  1  0
  7  8  2  0
  8  9  1  0
  9 10  2  0
 10 11  1  0
 11 12  2  0
 12  7  1  0
  1 13  1  0
  1 14  1  0
  1 15  1  0
  2 16  1  1
  3 17  1  0
  3 18  1  0
  4 19  1  0
  8 20  1  0
  9 21  1  0
 10 22  1  0
 11 23  1  0
 12 24  1  0
M  END
