
     RDKit          3D

 29 29  0  0  0  0  0  0  0  0999 V2000
    1.8146    1.3616    0.9576 N   0  0  0  0  0  0  0  0  0  0  0  0
    1.1420    1.5221   -0.3458 C   0  0  1  0  0  0  0  0  0  0  0  0
   -0.3633    1.7584   -0.1022 C   0  0  0  0  0  0  0  0  0  0  0  0
   -1.0826    0.6199    0.6385 C   0  0  0  0  0  0  0  0  0  0  0  0
   -1.1255   -0.6703   -0.1431 C   0  0  0  0  0  0  0  0  0  0  0  0
   -0.3133   -1.7503    0.2272 C   0  0  0  0  0  0  0  0  0  0  0  0
   -0.3394   -2.9390   -0.5036 C   0  0  0  0  0  0  0  0  0  0  0  0
   -1.1761   -3.0589   -1.6114 C   0  0  0  0  0  0  0  0  0  0  0  0
   -1.9873   -1.9906   -1.9892 C   0  0  0  0  0  0  0  0  0  0  0  0
   -1.9630   -0.8015   -1.2590 C   0  0  0  0  0  0  0  0  0  0  0  0
    1.7993    2.6701   -1.1181 C   0  0  0  0  0  0  0  0  0  0  0  0
    1.3059    2.7267   -2.8306 S   0  0  0  0  0  6  0  0  0  0  0  0
    2.5438    4.1038   -3.7134 Cl  0  0  0  0  0  0  0  0  0  0  0  0
   -0.0119    3.3175   -2.9370 O   0  0  0  0  0  0  0  0  0  0  0  0
    1.6480    1.4751   -3.4719 O   0  0  0  0  0  0  0  0  0  0  0  0
    1.7739    2.2229    1.5015 H   0  0  0  0  0  0  0  0  0  0  0  0
    2.8004    1.1341    0.8289 H   0  0  0  0  0  0  0  0  0  0  0  0
    1.2773    0.5909   -0.9064 H   0  0  0  0  0  0  0  0  0  0  0  0
   -0.4969    2.6823    0.4764 H   0  0  0  0  0  0  0  0  0  0  0  0
   -0.8740    1.9194   -1.0566 H   0  0  0  0  0  0  0  0  0  0  0  0
   -2.1167    0.9283    0.8418 H   0  0  0  0  0  0  0  0  0  0  0  0
   -0.6320    0.4537    1.6243 H   0  0  0  0  0  0  0  0  0  0  0  0
    0.3516   -1.6663    1.0843 H   0  0  0  0  0  0  0  0  0  0  0  0
    0.2960   -3.7701   -0.2098 H   0  0  0  0  0  0  0  0  0  0  0  0
   -1.1943   -3.9834   -2.1819 H   0  0  0  0  0  0  0  0  0  0  0  0
   -2.6377   -2.0819   -2.8551 H   0  0  0  0  0  0  0  0  0  0  0  0
   -2.6008    0.0237   -1.5680 H   0  0  0  0  0  0  0  0  0  0  0  0
    2.8878    2.5391   -1.1302 H   0  0  0  0  0  0  0  0  0  0  0  0
    1.5709    3.6447   -0.6741 H   0  0  0  0  0  0  0  0  0  0  0  0
  1  2  1  0
  2  3  1  0
  3  4  1  0
  4  5  1  0
  5  6  2  0
  6  7  1  0
  7  8  2  0
  8  9  1  0
  9 10  2  0
  2 11  1  0
 11 12  1  0
 12 13  1  0
 12 14  2  0
 12 15  2  0
 10  5  1  0
  1 16  1  0
  1 17  1  0
  2 18  1  6
  3 19  1  0
  3 20  1  0
  4 21  1  0
  4 22  1  0
  6 23  1  0
  7 24  1  0
  8 25  1  0
  9 26  1  0
 10 27  1  0
 11 28  1  0
 11 29  1  0
M  END
