
     RDKit          3D

 56 55  0  0  0  0  0  0  0  0999 V2000
    4.3306    5.5112    2.6620 C   0  0  0  0  0  0  0  0  0  0  0  0
    3.1965    6.4853    2.3812 C   0  0  0  0  0  0  0  0  0  0  0  0
    1.8356    6.0029    2.8886 C   0  0  0  0  0  0  0  0  0  0  0  0
    1.3365    4.7408    2.1797 C   0  0  0  0  0  0  0  0  0  0  0  0
   -0.0783    4.3739    2.6368 C   0  0  0  0  0  0  0  0  0  0  0  0
   -0.5795    3.0468    2.0578 C   0  0  0  0  0  0  0  0  0  0  0  0
   -0.7240    3.0673    0.5340 C   0  0  0  0  0  0  0  0  0  0  0  0
   -1.4509    1.8387   -0.0260 C   0  0  0  0  0  0  0  0  0  0  0  0
   -0.6718    0.5315    0.1688 C   0  0  0  0  0  0  0  0  0  0  0  0
   -1.4010   -0.7144   -0.3851 C   0  0  1  0  0  0  0  0  0  0  0  0
   -1.5274   -0.6398   -1.8465 N   0  0  0  0  0  0  0  0  0  0  0  0
   -0.6274   -1.9955    0.0344 C   0  0  0  0  0  0  0  0  0  0  0  0
   -1.2385   -3.3636   -0.2476 C   0  0  0  0  0  0  0  0  0  0  0  0
   -2.4926   -3.5599   -0.6916 C   0  0  0  0  0  0  0  0  0  0  0  0
   -0.3605   -4.5561    0.0848 C   0  0  0  0  0  0  0  0  0  0  0  0
    0.7728   -5.1807   -1.3226 Si  0  0  0  0  0  4  0  0  0  0  0  0
    1.7323   -6.6689   -0.6815 C   0  0  0  0  0  0  0  0  0  0  0  0
   -0.2672   -5.7103   -2.7922 C   0  0  0  0  0  0  0  0  0  0  0  0
    1.9850   -3.8529   -1.8495 C   0  0  0  0  0  0  0  0  0  0  0  0
    4.3840    5.2667    3.7277 H   0  0  0  0  0  0  0  0  0  0  0  0
    5.2876    5.9541    2.3675 H   0  0  0  0  0  0  0  0  0  0  0  0
    4.2101    4.5814    2.0983 H   0  0  0  0  0  0  0  0  0  0  0  0
    3.4292    7.4405    2.8675 H   0  0  0  0  0  0  0  0  0  0  0  0
    3.1443    6.6829    1.3040 H   0  0  0  0  0  0  0  0  0  0  0  0
    1.8898    5.8233    3.9693 H   0  0  0  0  0  0  0  0  0  0  0  0
    1.1080    6.8105    2.7388 H   0  0  0  0  0  0  0  0  0  0  0  0
    1.3480    4.9095    1.0968 H   0  0  0  0  0  0  0  0  0  0  0  0
    2.0106    3.9023    2.3889 H   0  0  0  0  0  0  0  0  0  0  0  0
   -0.0936    4.2963    3.7313 H   0  0  0  0  0  0  0  0  0  0  0  0
   -0.7745    5.1778    2.3679 H   0  0  0  0  0  0  0  0  0  0  0  0
    0.1039    2.2458    2.3618 H   0  0  0  0  0  0  0  0  0  0  0  0
   -1.5536    2.8226    2.5094 H   0  0  0  0  0  0  0  0  0  0  0  0
    0.2619    3.1453    0.0620 H   0  0  0  0  0  0  0  0  0  0  0  0
   -1.2894    3.9604    0.2401 H   0  0  0  0  0  0  0  0  0  0  0  0
   -1.6186    2.0163   -1.0941 H   0  0  0  0  0  0  0  0  0  0  0  0
   -2.4395    1.7531    0.4404 H   0  0  0  0  0  0  0  0  0  0  0  0
   -0.4996    0.3778    1.2409 H   0  0  0  0  0  0  0  0  0  0  0  0
    0.3184    0.6235   -0.2973 H   0  0  0  0  0  0  0  0  0  0  0  0
   -2.4066   -0.7467    0.0517 H   0  0  0  0  0  0  0  0  0  0  0  0
   -0.6040   -0.5722   -2.2717 H   0  0  0  0  0  0  0  0  0  0  0  0
   -2.0380    0.1971   -2.1179 H   0  0  0  0  0  0  0  0  0  0  0  0
    0.3671   -1.9548   -0.4272 H   0  0  0  0  0  0  0  0  0  0  0  0
   -0.4584   -1.9488    1.1195 H   0  0  0  0  0  0  0  0  0  0  0  0
   -3.1602   -2.7381   -0.9281 H   0  0  0  0  0  0  0  0  0  0  0  0
   -2.8888   -4.5582   -0.8529 H   0  0  0  0  0  0  0  0  0  0  0  0
   -0.9863   -5.4053    0.3886 H   0  0  0  0  0  0  0  0  0  0  0  0
    0.2638   -4.3225    0.9561 H   0  0  0  0  0  0  0  0  0  0  0  0
    2.3983   -7.0592   -1.4567 H   0  0  0  0  0  0  0  0  0  0  0  0
    2.3378   -6.3915    0.1869 H   0  0  0  0  0  0  0  0  0  0  0  0
    1.0469   -7.4671   -0.3820 H   0  0  0  0  0  0  0  0  0  0  0  0
    0.3649   -6.1375   -3.5762 H   0  0  0  0  0  0  0  0  0  0  0  0
   -1.0005   -6.4658   -2.4948 H   0  0  0  0  0  0  0  0  0  0  0  0
   -0.8059   -4.8574   -3.2159 H   0  0  0  0  0  0  0  0  0  0  0  0
    2.5402   -3.4700   -0.9884 H   0  0  0  0  0  0  0  0  0  0  0  0
    1.4664   -3.0157   -2.3258 H   0  0  0  0  0  0  0  0  0  0  0  0
    2.7070   -4.2540   -2.5673 H   0  0  0  0  0  0  0  0  0  0  0  0
  1  2  1  0
  2  3  1  0
  3  4  1  0
  4  5  1  0
  5  6  1  0
  6  7  1  0
  7  8  1  0
  8  9  1  0
  9 10  1  0
 10 11  1  0
 10 12  1  0
 12 13  1  0
 13 14  2  3
 13 15  1  0
 15 16  1  0
 16 17  1  0
 16 18  1  0
 16 19  1  0
  1 20  1  0
  1 21  1  0
  1 22  1  0
  2 23  1  0
  2 24  1  0
  3 25  1  0
  3 26  1  0
  4 27  1  0
  4 28  1  0
  5 29  1  0
  5 30  1  0
  6 31  1  0
  6 32  1  0
  7 33  1  0
  7 34  1  0
  8 35  1  0
  8 36  1  0
  9 37  1  0
  9 38  1  0
 10 39  1  1
 11 40  1  0
 11 41  1  0
 12 42  1  0
 12 43  1  0
 14 44  1  0
 14 45  1  0
 15 46  1  0
 15 47  1  0
 17 48  1  0
 17 49  1  0
 17 50  1  0
 18 51  1  0
 18 52  1  0
 18 53  1  0
 19 54  1  0
 19 55  1  0
 19 56  1  0
M  END
