
     RDKit          3D

 45 45  0  0  0  0  0  0  0  0999 V2000
   -3.2471   -1.9017   -1.1684 C   0  0  0  0  0  0  0  0  0  0  0  0
   -2.9193   -1.8974    0.3167 C   0  0  0  0  0  0  0  0  0  0  0  0
   -2.2659   -0.5978    0.7973 C   0  0  0  0  0  0  0  0  0  0  0  0
   -0.8763   -0.3621    0.1870 C   0  0  0  0  0  0  0  0  0  0  0  0
   -0.1253    0.8910    0.7239 C   0  0  1  0  0  0  0  0  0  0  0  0
   -0.9154    2.0680    0.3091 N   0  0  0  0  0  0  0  0  0  0  0  0
    0.1984    0.8669    2.2679 C   0  0  1  0  0  0  0  0  0  0  0  0
    0.8795   -0.7992    2.8035 S   0  0  0  0  0  0  0  0  0  0  0  0
    2.6365   -0.7120    2.3229 C   0  0  0  0  0  0  0  0  0  0  0  0
    2.9056   -0.7776    0.8426 C   0  0  0  0  0  0  0  0  0  0  0  0
    2.5565   -1.9135    0.0965 C   0  0  0  0  0  0  0  0  0  0  0  0
    2.8213   -1.9749   -1.2725 C   0  0  0  0  0  0  0  0  0  0  0  0
    3.4504   -0.9080   -1.9099 C   0  0  0  0  0  0  0  0  0  0  0  0
    3.8197    0.2188   -1.1785 C   0  0  0  0  0  0  0  0  0  0  0  0
    3.5538    0.2825    0.1907 C   0  0  0  0  0  0  0  0  0  0  0  0
    1.0412    2.0589    2.8491 C   0  0  0  0  0  0  0  0  0  0  0  0
    1.2703    1.9307    4.3701 C   0  0  0  0  0  0  0  0  0  0  0  0
    0.4162    3.4430    2.6206 C   0  0  0  0  0  0  0  0  0  0  0  0
   -3.8036   -2.8084   -1.4269 H   0  0  0  0  0  0  0  0  0  0  0  0
   -3.8630   -1.0380   -1.4378 H   0  0  0  0  0  0  0  0  0  0  0  0
   -2.3404   -1.8858   -1.7799 H   0  0  0  0  0  0  0  0  0  0  0  0
   -2.2707   -2.7498    0.5501 H   0  0  0  0  0  0  0  0  0  0  0  0
   -3.8497   -2.0449    0.8781 H   0  0  0  0  0  0  0  0  0  0  0  0
   -2.1889   -0.6510    1.8884 H   0  0  0  0  0  0  0  0  0  0  0  0
   -2.9294    0.2439    0.5679 H   0  0  0  0  0  0  0  0  0  0  0  0
   -0.2671   -1.2607    0.3215 H   0  0  0  0  0  0  0  0  0  0  0  0
   -0.9772   -0.2579   -0.9018 H   0  0  0  0  0  0  0  0  0  0  0  0
    0.8191    0.9529    0.1757 H   0  0  0  0  0  0  0  0  0  0  0  0
   -0.2814    2.8351    0.0927 H   0  0  0  0  0  0  0  0  0  0  0  0
   -1.3836    1.8744   -0.5769 H   0  0  0  0  0  0  0  0  0  0  0  0
   -0.7700    0.9109    2.7838 H   0  0  0  0  0  0  0  0  0  0  0  0
    3.1343   -1.5723    2.7872 H   0  0  0  0  0  0  0  0  0  0  0  0
    3.1073    0.1656    2.7744 H   0  0  0  0  0  0  0  0  0  0  0  0
    2.0673   -2.7572    0.5802 H   0  0  0  0  0  0  0  0  0  0  0  0
    2.5380   -2.8577   -1.8400 H   0  0  0  0  0  0  0  0  0  0  0  0
    3.6583   -0.9578   -2.9754 H   0  0  0  0  0  0  0  0  0  0  0  0
    4.3186    1.0475   -1.6743 H   0  0  0  0  0  0  0  0  0  0  0  0
    3.8555    1.1688    0.7444 H   0  0  0  0  0  0  0  0  0  0  0  0
    2.0219    2.0757    2.3606 H   0  0  0  0  0  0  0  0  0  0  0  0
    1.8758    1.0602    4.6337 H   0  0  0  0  0  0  0  0  0  0  0  0
    1.8095    2.8022    4.7590 H   0  0  0  0  0  0  0  0  0  0  0  0
    0.3168    1.8610    4.9050 H   0  0  0  0  0  0  0  0  0  0  0  0
   -0.6569    3.4408    2.8369 H   0  0  0  0  0  0  0  0  0  0  0  0
    0.5815    3.7908    1.5991 H   0  0  0  0  0  0  0  0  0  0  0  0
    0.8805    4.2016    3.2615 H   0  0  0  0  0  0  0  0  0  0  0  0
  1  2  1  0
  2  3  1  0
  3  4  1  0
  4  5  1  0
  5  6  1  0
  5  7  1  0
  7  8  1  0
  8  9  1  0
  9 10  1  0
 10 11  2  0
 11 12  1  0
 12 13  2  0
 13 14  1  0
 14 15  2  0
  7 16  1  0
 16 17  1  0
 16 18  1  0
 15 10  1  0
  1 19  1  0
  1 20  1  0
  1 21  1  0
  2 22  1  0
  2 23  1  0
  3 24  1  0
  3 25  1  0
  4 26  1  0
  4 27  1  0
  5 28  1  6
  6 29  1  0
  6 30  1  0
  7 31  1  1
  9 32  1  0
  9 33  1  0
 11 34  1  0
 12 35  1  0
 13 36  1  0
 14 37  1  0
 15 38  1  0
 16 39  1  0
 17 40  1  0
 17 41  1  0
 17 42  1  0
 18 43  1  0
 18 44  1  0
 18 45  1  0
M  END
