
     RDKit          3D

 40 41  0  0  0  0  0  0  0  0999 V2000
    1.2560    0.6850   -2.0985 C   0  0  0  0  0  0  0  0  0  0  0  0
   -0.1092   -0.0020   -2.1169 C   0  0  1  0  0  0  0  0  0  0  0  0
   -0.1139   -0.9399   -3.2567 N   0  0  0  0  0  0  0  0  0  0  0  0
   -0.5266   -0.7054   -0.7857 C   0  0  2  0  0  0  0  0  0  0  0  0
   -0.6376    0.2323    0.4343 C   0  0  0  0  0  0  0  0  0  0  0  0
   -1.7150    1.2839    0.2899 C   0  0  0  0  0  0  0  0  0  0  0  0
   -3.0686    0.9288    0.3787 C   0  0  0  0  0  0  0  0  0  0  0  0
   -4.0651    1.8950    0.2336 C   0  0  0  0  0  0  0  0  0  0  0  0
   -3.7196    3.2244    0.0002 C   0  0  0  0  0  0  0  0  0  0  0  0
   -2.3777    3.5893   -0.0856 C   0  0  0  0  0  0  0  0  0  0  0  0
   -1.3791    2.6249    0.0599 C   0  0  0  0  0  0  0  0  0  0  0  0
    0.4768   -2.2320   -0.4318 S   0  0  0  0  0  0  0  0  0  0  0  0
    1.8394   -1.5698    0.5811 C   0  0  0  0  0  0  0  0  0  0  0  0
    2.9551   -2.5759    0.7148 C   0  0  0  0  0  0  0  0  0  0  0  0
    3.9902   -2.6202   -0.2313 C   0  0  0  0  0  0  0  0  0  0  0  0
    5.0193   -3.5556   -0.1124 C   0  0  0  0  0  0  0  0  0  0  0  0
    5.0219   -4.4595    0.9482 C   0  0  0  0  0  0  0  0  0  0  0  0
    3.9937   -4.4325    1.8885 C   0  0  0  0  0  0  0  0  0  0  0  0
    2.9634   -3.4979    1.7718 C   0  0  0  0  0  0  0  0  0  0  0  0
    2.0797   -0.0319   -2.0242 H   0  0  0  0  0  0  0  0  0  0  0  0
    1.4092    1.2523   -3.0246 H   0  0  0  0  0  0  0  0  0  0  0  0
    1.3416    1.3958   -1.2724 H   0  0  0  0  0  0  0  0  0  0  0  0
   -0.8570    0.7666   -2.3453 H   0  0  0  0  0  0  0  0  0  0  0  0
    0.4827   -1.7360   -3.0126 H   0  0  0  0  0  0  0  0  0  0  0  0
   -1.0467   -1.3426   -3.3523 H   0  0  0  0  0  0  0  0  0  0  0  0
   -1.5283   -1.1185   -0.9674 H   0  0  0  0  0  0  0  0  0  0  0  0
    0.3184    0.7242    0.6459 H   0  0  0  0  0  0  0  0  0  0  0  0
   -0.8772   -0.3504    1.3344 H   0  0  0  0  0  0  0  0  0  0  0  0
   -3.3570   -0.1038    0.5643 H   0  0  0  0  0  0  0  0  0  0  0  0
   -5.1118    1.6104    0.3033 H   0  0  0  0  0  0  0  0  0  0  0  0
   -4.4961    3.9763   -0.1134 H   0  0  0  0  0  0  0  0  0  0  0  0
   -2.1084    4.6269   -0.2663 H   0  0  0  0  0  0  0  0  0  0  0  0
   -0.3382    2.9319   -0.0099 H   0  0  0  0  0  0  0  0  0  0  0  0
    1.4583   -1.3171    1.5766 H   0  0  0  0  0  0  0  0  0  0  0  0
    2.2398   -0.6502    0.1468 H   0  0  0  0  0  0  0  0  0  0  0  0
    3.9967   -1.9290   -1.0714 H   0  0  0  0  0  0  0  0  0  0  0  0
    5.8160   -3.5827   -0.8511 H   0  0  0  0  0  0  0  0  0  0  0  0
    5.8215   -5.1900    1.0378 H   0  0  0  0  0  0  0  0  0  0  0  0
    3.9907   -5.1437    2.7103 H   0  0  0  0  0  0  0  0  0  0  0  0
    2.1620   -3.4977    2.5073 H   0  0  0  0  0  0  0  0  0  0  0  0
  1  2  1  0
  2  3  1  0
  2  4  1  0
  4  5  1  0
  5  6  1  0
  6  7  2  0
  7  8  1  0
  8  9  2  0
  9 10  1  0
 10 11  2  0
  4 12  1  0
 12 13  1  0
 13 14  1  0
 14 15  2  0
 15 16  1  0
 16 17  2  0
 17 18  1  0
 18 19  2  0
 11  6  1  0
 19 14  1  0
  1 20  1  0
  1 21  1  0
  1 22  1  0
  2 23  1  6
  3 24  1  0
  3 25  1  0
  4 26  1  6
  5 27  1  0
  5 28  1  0
  7 29  1  0
  8 30  1  0
  9 31  1  0
 10 32  1  0
 11 33  1  0
 13 34  1  0
 13 35  1  0
 15 36  1  0
 16 37  1  0
 17 38  1  0
 18 39  1  0
 19 40  1  0
M  END
