
     RDKit          3D

 48 48  0  0  0  0  0  0  0  0999 V2000
   -0.4954   -1.1401    4.8683 C   0  0  0  0  0  0  0  0  0  0  0  0
   -1.0122   -2.2989    4.0295 C   0  0  0  0  0  0  0  0  0  0  0  0
   -0.3497   -2.4037    2.6530 C   0  0  0  0  0  0  0  0  0  0  0  0
   -0.6877   -1.2272    1.7272 C   0  0  0  0  0  0  0  0  0  0  0  0
   -0.0182   -1.3295    0.3395 C   0  0  1  0  0  0  0  0  0  0  0  0
   -0.5218   -2.4925   -0.3996 N   0  0  0  0  0  0  0  0  0  0  0  0
   -0.1371    0.0059   -0.4610 C   0  0  2  0  0  0  0  0  0  0  0  0
   -1.5610    0.6017   -0.6161 C   0  0  0  0  0  0  0  0  0  0  0  0
   -2.7252   -0.2670   -1.1425 C   0  0  0  0  0  0  0  0  0  0  0  0
   -4.0438    0.4969   -0.9497 C   0  0  0  0  0  0  0  0  0  0  0  0
   -2.5965   -0.6559   -2.6144 C   0  0  0  0  0  0  0  0  0  0  0  0
    0.7185   -0.0676   -2.1067 S   0  0  0  0  0  0  0  0  0  0  0  0
    2.4578   -0.2862   -1.6062 C   0  0  0  0  0  0  0  0  0  0  0  0
    3.0000    0.8169   -0.7333 C   0  0  0  0  0  0  0  0  0  0  0  0
    3.0938    2.1325   -1.2126 C   0  0  0  0  0  0  0  0  0  0  0  0
    3.5982    3.1502   -0.4016 C   0  0  0  0  0  0  0  0  0  0  0  0
    4.0206    2.8648    0.8949 C   0  0  0  0  0  0  0  0  0  0  0  0
    3.9421    1.5614    1.3808 C   0  0  0  0  0  0  0  0  0  0  0  0
    3.4377    0.5420    0.5712 C   0  0  0  0  0  0  0  0  0  0  0  0
   -0.7698   -0.1748    4.4334 H   0  0  0  0  0  0  0  0  0  0  0  0
    0.5941   -1.1801    4.9656 H   0  0  0  0  0  0  0  0  0  0  0  0
   -0.9268   -1.1834    5.8736 H   0  0  0  0  0  0  0  0  0  0  0  0
   -2.0990   -2.2116    3.9156 H   0  0  0  0  0  0  0  0  0  0  0  0
   -0.8249   -3.2315    4.5751 H   0  0  0  0  0  0  0  0  0  0  0  0
    0.7377   -2.4786    2.7745 H   0  0  0  0  0  0  0  0  0  0  0  0
   -0.6838   -3.3415    2.1945 H   0  0  0  0  0  0  0  0  0  0  0  0
   -1.7771   -1.1591    1.6239 H   0  0  0  0  0  0  0  0  0  0  0  0
   -0.3552   -0.2950    2.1986 H   0  0  0  0  0  0  0  0  0  0  0  0
    1.0480   -1.5088    0.5196 H   0  0  0  0  0  0  0  0  0  0  0  0
   -0.1530   -3.3528    0.0005 H   0  0  0  0  0  0  0  0  0  0  0  0
   -0.1760   -2.4453   -1.3603 H   0  0  0  0  0  0  0  0  0  0  0  0
    0.4127    0.7653    0.1082 H   0  0  0  0  0  0  0  0  0  0  0  0
   -1.8525    0.9566    0.3830 H   0  0  0  0  0  0  0  0  0  0  0  0
   -1.4992    1.5172   -1.2220 H   0  0  0  0  0  0  0  0  0  0  0  0
   -2.8049   -1.1812   -0.5463 H   0  0  0  0  0  0  0  0  0  0  0  0
   -4.2002    0.7457    0.1054 H   0  0  0  0  0  0  0  0  0  0  0  0
   -4.8968   -0.1083   -1.2751 H   0  0  0  0  0  0  0  0  0  0  0  0
   -4.0506    1.4296   -1.5241 H   0  0  0  0  0  0  0  0  0  0  0  0
   -1.7825   -1.3657   -2.7759 H   0  0  0  0  0  0  0  0  0  0  0  0
   -3.5111   -1.1454   -2.9678 H   0  0  0  0  0  0  0  0  0  0  0  0
   -2.4244    0.2225   -3.2454 H   0  0  0  0  0  0  0  0  0  0  0  0
    3.0620   -0.3291   -2.5201 H   0  0  0  0  0  0  0  0  0  0  0  0
    2.5722   -1.2651   -1.1298 H   0  0  0  0  0  0  0  0  0  0  0  0
    2.7673    2.3723   -2.2230 H   0  0  0  0  0  0  0  0  0  0  0  0
    3.6608    4.1662   -0.7830 H   0  0  0  0  0  0  0  0  0  0  0  0
    4.4136    3.6582    1.5252 H   0  0  0  0  0  0  0  0  0  0  0  0
    4.2764    1.3386    2.3908 H   0  0  0  0  0  0  0  0  0  0  0  0
    3.3902   -0.4693    0.9686 H   0  0  0  0  0  0  0  0  0  0  0  0
  1  2  1  0
  2  3  1  0
  3  4  1  0
  4  5  1  0
  5  6  1  0
  5  7  1  0
  7  8  1  0
  8  9  1  0
  9 10  1  0
  9 11  1  0
  7 12  1  0
 12 13  1  0
 13 14  1  0
 14 15  2  0
 15 16  1  0
 16 17  2  0
 17 18  1  0
 18 19  2  0
 19 14  1  0
  1 20  1  0
  1 21  1  0
  1 22  1  0
  2 23  1  0
  2 24  1  0
  3 25  1  0
  3 26  1  0
  4 27  1  0
  4 28  1  0
  5 29  1  1
  6 30  1  0
  6 31  1  0
  7 32  1  1
  8 33  1  0
  8 34  1  0
  9 35  1  0
 10 36  1  0
 10 37  1  0
 10 38  1  0
 11 39  1  0
 11 40  1  0
 11 41  1  0
 13 42  1  0
 13 43  1  0
 15 44  1  0
 16 45  1  0
 17 46  1  0
 18 47  1  0
 19 48  1  0
M  END
