
     RDKit          3D

 49 50  0  0  0  0  0  0  0  0999 V2000
   -0.3732    4.5954    3.5165 C   0  0  0  0  0  0  0  0  0  0  0  0
   -0.4796    3.4753    2.4928 C   0  0  0  0  0  0  0  0  0  0  0  0
   -1.3299    2.3186    3.0191 C   0  0  0  0  0  0  0  0  0  0  0  0
   -1.5731    1.2153    1.9768 C   0  0  0  0  0  0  0  0  0  0  0  0
   -0.3080    0.5194    1.4099 C   0  0  1  0  0  0  0  0  0  0  0  0
    0.4823   -0.0290    2.5310 N   0  0  0  0  0  0  0  0  0  0  0  0
   -0.6453   -0.6205    0.3886 C   0  0  2  0  0  0  0  0  0  0  0  0
    0.6038   -1.3665   -0.1549 C   0  0  0  0  0  0  0  0  0  0  0  0
    1.6271   -0.5497   -0.9154 C   0  0  0  0  0  0  0  0  0  0  0  0
    2.6922    0.0650   -0.2428 C   0  0  0  0  0  0  0  0  0  0  0  0
    3.6385    0.8153   -0.9429 C   0  0  0  0  0  0  0  0  0  0  0  0
    3.5341    0.9550   -2.3250 C   0  0  0  0  0  0  0  0  0  0  0  0
    2.4857    0.3417   -3.0073 C   0  0  0  0  0  0  0  0  0  0  0  0
    1.5396   -0.4090   -2.3071 C   0  0  0  0  0  0  0  0  0  0  0  0
   -1.7077   -0.0061   -1.0038 S   0  0  0  0  0  0  0  0  0  0  0  0
   -2.9744   -1.3125   -1.0550 C   0  0  0  0  0  0  0  0  0  0  0  0
   -2.4636   -2.6386   -1.5548 C   0  0  0  0  0  0  0  0  0  0  0  0
   -2.3871   -3.7442   -0.6949 C   0  0  0  0  0  0  0  0  0  0  0  0
   -1.9095   -4.9713   -1.1585 C   0  0  0  0  0  0  0  0  0  0  0  0
   -1.5073   -5.1082   -2.4855 C   0  0  0  0  0  0  0  0  0  0  0  0
   -1.5846   -4.0200   -3.3519 C   0  0  0  0  0  0  0  0  0  0  0  0
   -2.0626   -2.7927   -2.8908 C   0  0  0  0  0  0  0  0  0  0  0  0
   -1.3607    5.0008    3.7592 H   0  0  0  0  0  0  0  0  0  0  0  0
    0.0891    4.2377    4.4421 H   0  0  0  0  0  0  0  0  0  0  0  0
    0.2411    5.4113    3.1229 H   0  0  0  0  0  0  0  0  0  0  0  0
    0.5301    3.1278    2.2501 H   0  0  0  0  0  0  0  0  0  0  0  0
   -0.9194    3.8720    1.5705 H   0  0  0  0  0  0  0  0  0  0  0  0
   -0.8724    1.8974    3.9216 H   0  0  0  0  0  0  0  0  0  0  0  0
   -2.3083    2.7077    3.3294 H   0  0  0  0  0  0  0  0  0  0  0  0
   -2.1457    1.6709    1.1614 H   0  0  0  0  0  0  0  0  0  0  0  0
   -2.2295    0.4595    2.4283 H   0  0  0  0  0  0  0  0  0  0  0  0
    0.3052    1.2706    0.9002 H   0  0  0  0  0  0  0  0  0  0  0  0
    0.8532    0.7397    3.0890 H   0  0  0  0  0  0  0  0  0  0  0  0
   -0.1252   -0.5604    3.1540 H   0  0  0  0  0  0  0  0  0  0  0  0
   -1.2443   -1.3601    0.9351 H   0  0  0  0  0  0  0  0  0  0  0  0
    0.2898   -2.2005   -0.7947 H   0  0  0  0  0  0  0  0  0  0  0  0
    1.1174   -1.8615    0.6806 H   0  0  0  0  0  0  0  0  0  0  0  0
    2.7896   -0.0390    0.8358 H   0  0  0  0  0  0  0  0  0  0  0  0
    4.4572    1.2888   -0.4082 H   0  0  0  0  0  0  0  0  0  0  0  0
    4.2700    1.5392   -2.8703 H   0  0  0  0  0  0  0  0  0  0  0  0
    2.4026    0.4465   -4.0855 H   0  0  0  0  0  0  0  0  0  0  0  0
    0.7296   -0.8849   -2.8553 H   0  0  0  0  0  0  0  0  0  0  0  0
   -3.7774   -0.9760   -1.7211 H   0  0  0  0  0  0  0  0  0  0  0  0
   -3.4269   -1.4081   -0.0617 H   0  0  0  0  0  0  0  0  0  0  0  0
   -2.6949   -3.6574    0.3446 H   0  0  0  0  0  0  0  0  0  0  0  0
   -1.8495   -5.8213   -0.4837 H   0  0  0  0  0  0  0  0  0  0  0  0
   -1.1331   -6.0632   -2.8449 H   0  0  0  0  0  0  0  0  0  0  0  0
   -1.2703   -4.1256   -4.3870 H   0  0  0  0  0  0  0  0  0  0  0  0
   -2.1136   -1.9503   -3.5782 H   0  0  0  0  0  0  0  0  0  0  0  0
  1  2  1  0
  2  3  1  0
  3  4  1  0
  4  5  1  0
  5  6  1  0
  5  7  1  0
  7  8  1  0
  8  9  1  0
  9 10  2  0
 10 11  1  0
 11 12  2  0
 12 13  1  0
 13 14  2  0
  7 15  1  0
 15 16  1  0
 16 17  1  0
 17 18  2  0
 18 19  1  0
 19 20  2  0
 20 21  1  0
 21 22  2  0
 14  9  1  0
 22 17  1  0
  1 23  1  0
  1 24  1  0
  1 25  1  0
  2 26  1  0
  2 27  1  0
  3 28  1  0
  3 29  1  0
  4 30  1  0
  4 31  1  0
  5 32  1  6
  6 33  1  0
  6 34  1  0
  7 35  1  1
  8 36  1  0
  8 37  1  0
 10 38  1  0
 11 39  1  0
 12 40  1  0
 13 41  1  0
 14 42  1  0
 16 43  1  0
 16 44  1  0
 18 45  1  0
 19 46  1  0
 20 47  1  0
 21 48  1  0
 22 49  1  0
M  END
