
     RDKit          3D

 55 56  0  0  0  0  0  0  0  0999 V2000
    1.4653    1.8235    5.6510 C   0  0  0  0  0  0  0  0  0  0  0  0
    1.0246    1.9635    4.2016 C   0  0  0  0  0  0  0  0  0  0  0  0
    2.1924    2.3574    3.2998 C   0  0  0  0  0  0  0  0  0  0  0  0
    1.7958    2.6528    1.8489 C   0  0  0  0  0  0  0  0  0  0  0  0
    1.2272    1.4497    1.0865 C   0  0  0  0  0  0  0  0  0  0  0  0
   -0.3060    1.4509    1.0336 C   0  0  0  0  0  0  0  0  0  0  0  0
   -0.9025    0.1606    0.4334 C   0  0  1  0  0  0  0  0  0  0  0  0
   -2.3643    0.2523    0.5429 N   0  0  0  0  0  0  0  0  0  0  0  0
   -0.4065   -0.1855   -1.0084 C   0  0  2  0  0  0  0  0  0  0  0  0
   -0.6055    0.9029   -2.0933 C   0  0  0  0  0  0  0  0  0  0  0  0
   -1.9930    1.1651   -2.6338 C   0  0  0  0  0  0  0  0  0  0  0  0
   -2.4515    0.5056   -3.7838 C   0  0  0  0  0  0  0  0  0  0  0  0
   -3.7260    0.7611   -4.2942 C   0  0  0  0  0  0  0  0  0  0  0  0
   -4.5571    1.6844   -3.6654 C   0  0  0  0  0  0  0  0  0  0  0  0
   -4.1128    2.3530   -2.5278 C   0  0  0  0  0  0  0  0  0  0  0  0
   -2.8379    2.0978   -2.0183 C   0  0  0  0  0  0  0  0  0  0  0  0
   -1.0757   -1.8494   -1.4893 S   0  0  0  0  0  0  0  0  0  0  0  0
    0.1409   -2.3106   -2.7607 C   0  0  0  0  0  0  0  0  0  0  0  0
   -0.1297   -3.6892   -3.3078 C   0  0  0  0  0  0  0  0  0  0  0  0
   -1.0451   -3.8733   -4.3548 C   0  0  0  0  0  0  0  0  0  0  0  0
   -1.2996   -5.1503   -4.8578 C   0  0  0  0  0  0  0  0  0  0  0  0
   -0.6470   -6.2563   -4.3168 C   0  0  0  0  0  0  0  0  0  0  0  0
    0.2563   -6.0878   -3.2692 C   0  0  0  0  0  0  0  0  0  0  0  0
    0.5121   -4.8117   -2.7643 C   0  0  0  0  0  0  0  0  0  0  0  0
    0.6166    1.5340    6.2786 H   0  0  0  0  0  0  0  0  0  0  0  0
    1.8633    2.7689    6.0335 H   0  0  0  0  0  0  0  0  0  0  0  0
    2.2405    1.0574    5.7528 H   0  0  0  0  0  0  0  0  0  0  0  0
    0.2322    2.7179    4.1391 H   0  0  0  0  0  0  0  0  0  0  0  0
    0.6005    1.0083    3.8745 H   0  0  0  0  0  0  0  0  0  0  0  0
    2.6737    3.2552    3.7078 H   0  0  0  0  0  0  0  0  0  0  0  0
    2.9505    1.5644    3.3149 H   0  0  0  0  0  0  0  0  0  0  0  0
    2.7063    2.9799    1.3301 H   0  0  0  0  0  0  0  0  0  0  0  0
    1.1018    3.5009    1.8130 H   0  0  0  0  0  0  0  0  0  0  0  0
    1.6085    1.4987    0.0597 H   0  0  0  0  0  0  0  0  0  0  0  0
    1.5976    0.5119    1.5164 H   0  0  0  0  0  0  0  0  0  0  0  0
   -0.7018    1.5771    2.0482 H   0  0  0  0  0  0  0  0  0  0  0  0
   -0.6446    2.3292    0.4708 H   0  0  0  0  0  0  0  0  0  0  0  0
   -0.5891   -0.6661    1.0869 H   0  0  0  0  0  0  0  0  0  0  0  0
   -2.6508    0.0801    1.5049 H   0  0  0  0  0  0  0  0  0  0  0  0
   -2.7761   -0.5019   -0.0153 H   0  0  0  0  0  0  0  0  0  0  0  0
    0.6754   -0.3434   -0.9209 H   0  0  0  0  0  0  0  0  0  0  0  0
   -0.1957    1.8548   -1.7323 H   0  0  0  0  0  0  0  0  0  0  0  0
    0.0413    0.6599   -2.9480 H   0  0  0  0  0  0  0  0  0  0  0  0
   -1.8194   -0.2155   -4.2942 H   0  0  0  0  0  0  0  0  0  0  0  0
   -4.0699    0.2374   -5.1819 H   0  0  0  0  0  0  0  0  0  0  0  0
   -5.5504    1.8809   -4.0591 H   0  0  0  0  0  0  0  0  0  0  0  0
   -4.7593    3.0704   -2.0299 H   0  0  0  0  0  0  0  0  0  0  0  0
   -2.5154    2.6245   -1.1232 H   0  0  0  0  0  0  0  0  0  0  0  0
    0.1200   -1.5880   -3.5824 H   0  0  0  0  0  0  0  0  0  0  0  0
    1.1466   -2.2770   -2.3273 H   0  0  0  0  0  0  0  0  0  0  0  0
   -1.5729   -3.0217   -4.7781 H   0  0  0  0  0  0  0  0  0  0  0  0
   -2.0126   -5.2824   -5.6673 H   0  0  0  0  0  0  0  0  0  0  0  0
   -0.8489   -7.2506   -4.7062 H   0  0  0  0  0  0  0  0  0  0  0  0
    0.7576   -6.9516   -2.8406 H   0  0  0  0  0  0  0  0  0  0  0  0
    1.2111   -4.6989   -1.9388 H   0  0  0  0  0  0  0  0  0  0  0  0
  1  2  1  0
  2  3  1  0
  3  4  1  0
  4  5  1  0
  5  6  1  0
  6  7  1  0
  7  8  1  0
  7  9  1  0
  9 10  1  0
 10 11  1  0
 11 12  2  0
 12 13  1  0
 13 14  2  0
 14 15  1  0
 15 16  2  0
  9 17  1  0
 17 18  1  0
 18 19  1  0
 19 20  2  0
 20 21  1  0
 21 22  2  0
 22 23  1  0
 23 24  2  0
 16 11  1  0
 24 19  1  0
  1 25  1  0
  1 26  1  0
  1 27  1  0
  2 28  1  0
  2 29  1  0
  3 30  1  0
  3 31  1  0
  4 32  1  0
  4 33  1  0
  5 34  1  0
  5 35  1  0
  6 36  1  0
  6 37  1  0
  7 38  1  1
  8 39  1  0
  8 40  1  0
  9 41  1  1
 10 42  1  0
 10 43  1  0
 12 44  1  0
 13 45  1  0
 14 46  1  0
 15 47  1  0
 16 48  1  0
 18 49  1  0
 18 50  1  0
 20 51  1  0
 21 52  1  0
 22 53  1  0
 23 54  1  0
 24 55  1  0
M  END
