
     RDKit          3D

 13 12  0  0  0  0  0  0  0  0999 V2000
   -0.9837    0.7717   -1.0703 C   0  0  0  0  0  0  0  0  0  0  0  0
   -1.3825    1.0400    0.3820 C   0  0  2  0  0  0  0  0  0  0  0  0
   -1.2482    2.4683    0.6921 N   0  0  0  0  0  0  0  0  0  0  0  0
   -0.6256    0.1555    1.3812 C   0  0  0  0  0  0  0  0  0  0  0  0
    1.2910    0.5268    1.4218 Br  0  0  0  0  0  0  0  0  0  0  0  0
   -1.6416    1.3150   -1.7583 H   0  0  0  0  0  0  0  0  0  0  0  0
   -1.0712   -0.2946   -1.3048 H   0  0  0  0  0  0  0  0  0  0  0  0
    0.0438    1.0834   -1.2844 H   0  0  0  0  0  0  0  0  0  0  0  0
   -2.4466    0.7912    0.4770 H   0  0  0  0  0  0  0  0  0  0  0  0
   -1.6725    3.0268   -0.0479 H   0  0  0  0  0  0  0  0  0  0  0  0
   -0.2569    2.7173    0.6989 H   0  0  0  0  0  0  0  0  0  0  0  0
   -0.7267   -0.9054    1.1339 H   0  0  0  0  0  0  0  0  0  0  0  0
   -0.9830    0.3142    2.4034 H   0  0  0  0  0  0  0  0  0  0  0  0
  1  2  1  0
  2  3  1  0
  2  4  1  0
  4  5  1  0
  1  6  1  0
  1  7  1  0
  1  8  1  0
  2  9  1  6
  3 10  1  0
  3 11  1  0
  4 12  1  0
  4 13  1  0
M  END
