
     RDKit          3D

 23 22  0  0  0  0  0  0  0  0999 V2000
   -0.0540   -1.5918   -2.4173 C   0  0  0  0  0  0  0  0  0  0  0  0
    0.9086   -1.7382   -1.2477 C   0  0  0  0  0  0  0  0  0  0  0  0
    1.1779   -0.4211   -0.4862 C   0  0  2  0  0  0  0  0  0  0  0  0
    2.2381   -0.6848    0.5949 C   0  0  0  0  0  0  0  0  0  0  0  0
   -0.1058    0.2609    0.0734 C   0  0  2  0  0  0  0  0  0  0  0  0
    0.2449    1.5680    0.6628 N   0  0  0  0  0  0  0  0  0  0  0  0
   -0.8794   -0.6199    1.0812 C   0  0  0  0  0  0  0  0  0  0  0  0
   -2.4011    0.1847    1.6936 S   0  0  0  0  0  0  0  0  0  0  0  0
   -0.0939   -2.5253   -2.9880 H   0  0  0  0  0  0  0  0  0  0  0  0
   -1.0702   -1.3724   -2.0777 H   0  0  0  0  0  0  0  0  0  0  0  0
    0.2679   -0.7948   -3.0948 H   0  0  0  0  0  0  0  0  0  0  0  0
    1.8609   -2.1158   -1.6420 H   0  0  0  0  0  0  0  0  0  0  0  0
    0.5348   -2.5102   -0.5654 H   0  0  0  0  0  0  0  0  0  0  0  0
    1.6291    0.2753   -1.2081 H   0  0  0  0  0  0  0  0  0  0  0  0
    2.5062    0.2308    1.1308 H   0  0  0  0  0  0  0  0  0  0  0  0
    3.1568   -1.0738    0.1417 H   0  0  0  0  0  0  0  0  0  0  0  0
    1.8949   -1.4229    1.3266 H   0  0  0  0  0  0  0  0  0  0  0  0
   -0.7685    0.4760   -0.7741 H   0  0  0  0  0  0  0  0  0  0  0  0
    0.7293    2.1333   -0.0346 H   0  0  0  0  0  0  0  0  0  0  0  0
   -0.6196    2.0699    0.8713 H   0  0  0  0  0  0  0  0  0  0  0  0
   -1.1863   -1.5584    0.6115 H   0  0  0  0  0  0  0  0  0  0  0  0
   -0.2640   -0.8635    1.9526 H   0  0  0  0  0  0  0  0  0  0  0  0
   -1.7751    1.0761    2.4769 H   0  0  0  0  0  0  0  0  0  0  0  0
  1  2  1  0
  2  3  1  0
  3  4  1  0
  3  5  1  0
  5  6  1  0
  5  7  1  0
  7  8  1  0
  1  9  1  0
  1 10  1  0
  1 11  1  0
  2 12  1  0
  2 13  1  0
  3 14  1  6
  4 15  1  0
  4 16  1  0
  4 17  1  0
  5 18  1  6
  6 19  1  0
  6 20  1  0
  7 21  1  0
  7 22  1  0
  8 23  1  0
M  END
