
     RDKit          3D

 27 27  0  0  0  0  0  0  0  0999 V2000
   -2.9508    1.4027   -2.7141 C   0  0  0  0  0  0  0  0  0  0  0  0
   -3.2895    0.9705   -1.3124 C   0  0  0  0  0  0  0  0  0  0  0  0
   -4.4066    0.5400   -1.0237 O   0  0  0  0  0  0  0  0  0  0  0  0
   -2.1874    1.0352   -0.2819 C   0  0  0  0  0  0  0  0  0  0  0  0
   -1.5160   -0.3311   -0.1364 C   0  0  2  0  0  0  0  0  0  0  0  0
   -2.3562   -1.2842    0.5876 N   0  0  0  0  0  0  0  0  0  0  0  0
   -0.2389   -0.1940    0.5795 C   0  0  0  0  0  0  0  0  0  0  0  0
    0.8056   -0.0828    1.1633 C   0  0  0  0  0  0  0  0  0  0  0  0
    2.0474    0.0385    1.8623 C   0  0  0  0  0  0  0  0  0  0  0  0
    2.6138   -1.0803    2.4774 C   0  0  0  0  0  0  0  0  0  0  0  0
    3.8260   -0.9639    3.1604 C   0  0  0  0  0  0  0  0  0  0  0  0
    4.4723    0.2702    3.2291 C   0  0  0  0  0  0  0  0  0  0  0  0
    3.9081    1.3888    2.6156 C   0  0  0  0  0  0  0  0  0  0  0  0
    2.6958    1.2738    1.9321 C   0  0  0  0  0  0  0  0  0  0  0  0
   -3.8346    1.3099   -3.3514 H   0  0  0  0  0  0  0  0  0  0  0  0
   -2.1573    0.7668   -3.1138 H   0  0  0  0  0  0  0  0  0  0  0  0
   -2.6308    2.4476   -2.7084 H   0  0  0  0  0  0  0  0  0  0  0  0
   -2.6119    1.3899    0.6657 H   0  0  0  0  0  0  0  0  0  0  0  0
   -1.4674    1.8010   -0.5973 H   0  0  0  0  0  0  0  0  0  0  0  0
   -1.3167   -0.7509   -1.1296 H   0  0  0  0  0  0  0  0  0  0  0  0
   -2.4942   -0.9546    1.5428 H   0  0  0  0  0  0  0  0  0  0  0  0
   -3.2920   -1.2906    0.1726 H   0  0  0  0  0  0  0  0  0  0  0  0
    2.1148   -2.0454    2.4280 H   0  0  0  0  0  0  0  0  0  0  0  0
    4.2648   -1.8358    3.6385 H   0  0  0  0  0  0  0  0  0  0  0  0
    5.4159    0.3601    3.7612 H   0  0  0  0  0  0  0  0  0  0  0  0
    4.4120    2.3503    2.6697 H   0  0  0  0  0  0  0  0  0  0  0  0
    2.2628    2.1503    1.4573 H   0  0  0  0  0  0  0  0  0  0  0  0
  1  2  1  0
  2  3  2  0
  2  4  1  0
  4  5  1  0
  5  6  1  0
  5  7  1  0
  7  8  3  0
  8  9  1  0
  9 10  2  0
 10 11  1  0
 11 12  2  0
 12 13  1  0
 13 14  2  0
 14  9  1  0
  1 15  1  0
  1 16  1  0
  1 17  1  0
  4 18  1  0
  4 19  1  0
  5 20  1  1
  6 21  1  0
  6 22  1  0
 10 23  1  0
 11 24  1  0
 12 25  1  0
 13 26  1  0
 14 27  1  0
M  END
