
     RDKit          3D

 50 50  0  0  0  0  0  0  0  0999 V2000
    1.6102   -2.7745   -6.1470 C   0  0  0  0  0  0  0  0  0  0  0  0
    2.6979   -3.5812   -5.4547 C   0  0  0  0  0  0  0  0  0  0  0  0
    2.4252   -3.8265   -3.9692 C   0  0  0  0  0  0  0  0  0  0  0  0
    2.4369   -2.5462   -3.1311 C   0  0  0  0  0  0  0  0  0  0  0  0
    2.2650   -2.8572   -1.6424 C   0  0  0  0  0  0  0  0  0  0  0  0
    2.2726   -1.5780   -0.8022 C   0  0  0  0  0  0  0  0  0  0  0  0
    2.0940   -1.8910    0.6846 C   0  0  0  0  0  0  0  0  0  0  0  0
    2.2087   -0.6583    1.5866 C   0  0  0  0  0  0  0  0  0  0  0  0
    1.2117    0.4725    1.3100 C   0  0  0  0  0  0  0  0  0  0  0  0
   -0.2535    0.0430    1.4569 C   0  0  0  0  0  0  0  0  0  0  0  0
   -1.2495    1.1961    1.2198 C   0  0  2  0  0  0  0  0  0  0  0  0
   -1.0556    2.2443    2.2319 N   0  0  0  0  0  0  0  0  0  0  0  0
   -2.6977    0.6490    1.2298 C   0  0  0  0  0  0  0  0  0  0  0  0
   -3.7483    1.6836    0.8940 C   0  0  0  0  0  0  0  0  0  0  0  0
   -4.6209    2.1588    1.8825 C   0  0  0  0  0  0  0  0  0  0  0  0
   -5.5839    3.1208    1.5733 C   0  0  0  0  0  0  0  0  0  0  0  0
   -5.6850    3.6156    0.2746 C   0  0  0  0  0  0  0  0  0  0  0  0
   -4.8244    3.1482   -0.7166 C   0  0  0  0  0  0  0  0  0  0  0  0
   -3.8609    2.1863   -0.4096 C   0  0  0  0  0  0  0  0  0  0  0  0
    1.8123   -2.7167   -7.2214 H   0  0  0  0  0  0  0  0  0  0  0  0
    1.5643   -1.7509   -5.7640 H   0  0  0  0  0  0  0  0  0  0  0  0
    0.6290   -3.2401   -6.0117 H   0  0  0  0  0  0  0  0  0  0  0  0
    3.6624   -3.0750   -5.5787 H   0  0  0  0  0  0  0  0  0  0  0  0
    2.7833   -4.5524   -5.9566 H   0  0  0  0  0  0  0  0  0  0  0  0
    3.1935   -4.5110   -3.5888 H   0  0  0  0  0  0  0  0  0  0  0  0
    1.4615   -4.3371   -3.8518 H   0  0  0  0  0  0  0  0  0  0  0  0
    3.3822   -2.0127   -3.2876 H   0  0  0  0  0  0  0  0  0  0  0  0
    1.6294   -1.8792   -3.4532 H   0  0  0  0  0  0  0  0  0  0  0  0
    3.0732   -3.5199   -1.3098 H   0  0  0  0  0  0  0  0  0  0  0  0
    1.3212   -3.3936   -1.4860 H   0  0  0  0  0  0  0  0  0  0  0  0
    3.2182   -1.0439   -0.9548 H   0  0  0  0  0  0  0  0  0  0  0  0
    1.4670   -0.9200   -1.1468 H   0  0  0  0  0  0  0  0  0  0  0  0
    1.1310   -2.3882    0.8474 H   0  0  0  0  0  0  0  0  0  0  0  0
    2.8643   -2.6087    0.9945 H   0  0  0  0  0  0  0  0  0  0  0  0
    3.2238   -0.2510    1.4991 H   0  0  0  0  0  0  0  0  0  0  0  0
    2.0969   -0.9814    2.6292 H   0  0  0  0  0  0  0  0  0  0  0  0
    1.3787    0.8832    0.3077 H   0  0  0  0  0  0  0  0  0  0  0  0
    1.4308    1.2840    2.0143 H   0  0  0  0  0  0  0  0  0  0  0  0
   -0.4100   -0.3888    2.4540 H   0  0  0  0  0  0  0  0  0  0  0  0
   -0.4686   -0.7509    0.7320 H   0  0  0  0  0  0  0  0  0  0  0  0
   -1.0377    1.6378    0.2383 H   0  0  0  0  0  0  0  0  0  0  0  0
   -1.7131    3.0043    2.0456 H   0  0  0  0  0  0  0  0  0  0  0  0
   -1.3080    1.8840    3.1510 H   0  0  0  0  0  0  0  0  0  0  0  0
   -2.7888   -0.1690    0.5026 H   0  0  0  0  0  0  0  0  0  0  0  0
   -2.9188    0.2004    2.2077 H   0  0  0  0  0  0  0  0  0  0  0  0
   -4.5567    1.7838    2.9014 H   0  0  0  0  0  0  0  0  0  0  0  0
   -6.2564    3.4838    2.3461 H   0  0  0  0  0  0  0  0  0  0  0  0
   -6.4352    4.3644    0.0346 H   0  0  0  0  0  0  0  0  0  0  0  0
   -4.9034    3.5329   -1.7300 H   0  0  0  0  0  0  0  0  0  0  0  0
   -3.1976    1.8316   -1.1954 H   0  0  0  0  0  0  0  0  0  0  0  0
  1  2  1  0
  2  3  1  0
  3  4  1  0
  4  5  1  0
  5  6  1  0
  6  7  1  0
  7  8  1  0
  8  9  1  0
  9 10  1  0
 10 11  1  0
 11 12  1  0
 11 13  1  0
 13 14  1  0
 14 15  2  0
 15 16  1  0
 16 17  2  0
 17 18  1  0
 18 19  2  0
 19 14  1  0
  1 20  1  0
  1 21  1  0
  1 22  1  0
  2 23  1  0
  2 24  1  0
  3 25  1  0
  3 26  1  0
  4 27  1  0
  4 28  1  0
  5 29  1  0
  5 30  1  0
  6 31  1  0
  6 32  1  0
  7 33  1  0
  7 34  1  0
  8 35  1  0
  8 36  1  0
  9 37  1  0
  9 38  1  0
 10 39  1  0
 10 40  1  0
 11 41  1  6
 12 42  1  0
 12 43  1  0
 13 44  1  0
 13 45  1  0
 15 46  1  0
 16 47  1  0
 17 48  1  0
 18 49  1  0
 19 50  1  0
M  END
