
     RDKit          3D

 35 34  0  0  0  0  0  0  0  0999 V2000
   -2.5734   -3.5654    1.2510 C   0  0  0  0  0  0  0  0  0  0  0  0
   -1.0802   -3.7672    1.5364 C   0  0  0  0  0  0  0  0  0  0  0  0
   -0.8961   -3.9590    3.0500 C   0  0  0  0  0  0  0  0  0  0  0  0
   -0.2073   -2.5975    0.9956 C   0  0  1  0  0  0  0  0  0  0  0  0
    1.2076   -2.8694    1.3067 N   0  0  0  0  0  0  0  0  0  0  0  0
   -0.4107   -2.3585   -0.5244 C   0  0  0  0  0  0  0  0  0  0  0  0
    0.4559   -1.2641   -1.1011 C   0  0  0  0  0  0  0  0  0  0  0  0
   -0.0177   -0.0711   -1.4940 C   0  0  0  0  0  0  0  0  0  0  0  0
    1.0054    1.3047   -2.2238 Si  0  0  0  0  0  4  0  0  0  0  0  0
    2.3527    1.7948   -1.0140 C   0  0  0  0  0  0  0  0  0  0  0  0
   -0.0950    2.7856   -2.5641 C   0  0  0  0  0  0  0  0  0  0  0  0
    1.7846    0.7255   -3.8285 C   0  0  0  0  0  0  0  0  0  0  0  0
   -2.7872   -3.6203    0.1795 H   0  0  0  0  0  0  0  0  0  0  0  0
   -3.1724   -4.3466    1.7318 H   0  0  0  0  0  0  0  0  0  0  0  0
   -2.9206   -2.5961    1.6241 H   0  0  0  0  0  0  0  0  0  0  0  0
   -0.7720   -4.6990    1.0428 H   0  0  0  0  0  0  0  0  0  0  0  0
   -1.1577   -3.0473    3.5979 H   0  0  0  0  0  0  0  0  0  0  0  0
    0.1357   -4.2243    3.3008 H   0  0  0  0  0  0  0  0  0  0  0  0
   -1.5341   -4.7694    3.4195 H   0  0  0  0  0  0  0  0  0  0  0  0
   -0.4885   -1.6802    1.5295 H   0  0  0  0  0  0  0  0  0  0  0  0
    1.5441   -3.6316    0.7201 H   0  0  0  0  0  0  0  0  0  0  0  0
    1.7652   -2.0523    1.0607 H   0  0  0  0  0  0  0  0  0  0  0  0
   -0.2039   -3.2834   -1.0779 H   0  0  0  0  0  0  0  0  0  0  0  0
   -1.4605   -2.1105   -0.7188 H   0  0  0  0  0  0  0  0  0  0  0  0
    1.5133   -1.4998   -1.2106 H   0  0  0  0  0  0  0  0  0  0  0  0
   -1.0722    0.1692   -1.3993 H   0  0  0  0  0  0  0  0  0  0  0  0
    2.9554    2.6126   -1.4202 H   0  0  0  0  0  0  0  0  0  0  0  0
    3.0179    0.9506   -0.8090 H   0  0  0  0  0  0  0  0  0  0  0  0
    1.9200    2.1280   -0.0659 H   0  0  0  0  0  0  0  0  0  0  0  0
    0.4867    3.6069   -2.9933 H   0  0  0  0  0  0  0  0  0  0  0  0
   -0.8893    2.5246   -3.2699 H   0  0  0  0  0  0  0  0  0  0  0  0
   -0.5606    3.1431   -1.6408 H   0  0  0  0  0  0  0  0  0  0  0  0
    2.3797    1.5261   -4.2781 H   0  0  0  0  0  0  0  0  0  0  0  0
    2.4425   -0.1313   -3.6549 H   0  0  0  0  0  0  0  0  0  0  0  0
    1.0158    0.4270   -4.5475 H   0  0  0  0  0  0  0  0  0  0  0  0
  1  2  1  0
  2  3  1  0
  2  4  1  0
  4  5  1  0
  4  6  1  0
  6  7  1  0
  7  8  2  0
  8  9  1  0
  9 10  1  0
  9 11  1  0
  9 12  1  0
  1 13  1  0
  1 14  1  0
  1 15  1  0
  2 16  1  0
  3 17  1  0
  3 18  1  0
  3 19  1  0
  4 20  1  1
  5 21  1  0
  5 22  1  0
  6 23  1  0
  6 24  1  0
  7 25  1  0
  8 26  1  0
 10 27  1  0
 10 28  1  0
 10 29  1  0
 11 30  1  0
 11 31  1  0
 11 32  1  0
 12 33  1  0
 12 34  1  0
 12 35  1  0
M  END
