
     RDKit          3D

 25 25  0  0  0  0  0  0  0  0999 V2000
    1.2233   -0.4623   -1.1191 N   0  0  0  0  0  0  0  0  0  0  0  0
   -0.1430    0.0403   -0.9307 C   0  0  1  0  0  0  0  0  0  0  0  0
   -0.9598   -0.8086    0.0760 C   0  0  0  0  0  0  0  0  0  0  0  0
   -0.5686   -0.7009    1.5345 C   0  0  0  0  0  0  0  0  0  0  0  0
   -1.3607    0.0351    2.4280 C   0  0  0  0  0  0  0  0  0  0  0  0
   -1.0048    0.1372    3.7740 C   0  0  0  0  0  0  0  0  0  0  0  0
    0.1466   -0.4932    4.2414 C   0  0  0  0  0  0  0  0  0  0  0  0
    0.9419   -1.2264    3.3636 C   0  0  0  0  0  0  0  0  0  0  0  0
    0.5854   -1.3311    2.0178 C   0  0  0  0  0  0  0  0  0  0  0  0
   -0.0880    1.4954   -0.5602 C   0  0  0  0  0  0  0  0  0  0  0  0
   -0.7117    2.4488   -1.1919 C   0  0  0  0  0  0  0  0  0  0  0  0
   -1.3360    3.3891   -1.8259 C   0  0  0  0  0  0  0  0  0  0  0  0
   -1.7874    3.0866   -3.5867 Br  0  0  0  0  0  0  0  0  0  0  0  0
    1.6617    0.0701   -1.8709 H   0  0  0  0  0  0  0  0  0  0  0  0
    1.1808   -1.4251   -1.4475 H   0  0  0  0  0  0  0  0  0  0  0  0
   -0.6441   -0.0590   -1.9031 H   0  0  0  0  0  0  0  0  0  0  0  0
   -2.0196   -0.5349   -0.0242 H   0  0  0  0  0  0  0  0  0  0  0  0
   -0.9156   -1.8675   -0.2149 H   0  0  0  0  0  0  0  0  0  0  0  0
   -2.2607    0.5374    2.0801 H   0  0  0  0  0  0  0  0  0  0  0  0
   -1.6253    0.7109    4.4573 H   0  0  0  0  0  0  0  0  0  0  0  0
    0.4257   -0.4120    5.2884 H   0  0  0  0  0  0  0  0  0  0  0  0
    1.8424   -1.7161    3.7246 H   0  0  0  0  0  0  0  0  0  0  0  0
    1.2212   -1.9020    1.3449 H   0  0  0  0  0  0  0  0  0  0  0  0
    0.5070    1.7561    0.3122 H   0  0  0  0  0  0  0  0  0  0  0  0
   -1.6477    4.3276   -1.3850 H   0  0  0  0  0  0  0  0  0  0  0  0
  1  2  1  0
  2  3  1  0
  3  4  1  0
  4  5  2  0
  5  6  1  0
  6  7  2  0
  7  8  1  0
  8  9  2  0
  2 10  1  0
 10 11  2  0
 11 12  2  0
 12 13  1  0
  9  4  1  0
  1 14  1  0
  1 15  1  0
  2 16  1  6
  3 17  1  0
  3 18  1  0
  5 19  1  0
  6 20  1  0
  7 21  1  0
  8 22  1  0
  9 23  1  0
 10 24  1  0
 12 25  1  0
M  END
