
     RDKit          3D

 24 24  0  0  0  0  0  0  0  0999 V2000
   -1.8776    1.1012   -2.0807 N   0  0  0  0  0  0  0  0  0  0  0  0
   -1.2183    0.0506   -1.2089 C   0  0  2  0  0  0  0  0  0  0  0  0
   -1.0540    0.6017    0.2147 C   0  0  0  0  0  0  0  0  0  0  0  0
   -1.6923    1.7928    0.4491 N   0  0  0  0  0  0  0  0  0  0  0  0
   -0.4665    0.0321    1.1261 O   0  0  0  0  0  0  0  0  0  0  0  0
    0.1477   -0.4629   -1.7499 C   0  0  0  0  0  0  0  0  0  0  0  0
   -0.0049   -0.5686   -3.1185 F   0  0  0  0  0  0  0  0  0  0  0  0
    1.0880    0.5195   -1.5996 F   0  0  0  0  0  0  0  0  0  0  0  0
    0.5879   -1.7989   -1.1838 C   0  0  0  0  0  0  0  0  0  0  0  0
    0.0210   -2.9932   -1.6596 C   0  0  0  0  0  0  0  0  0  0  0  0
    0.4254   -4.2265   -1.1456 C   0  0  0  0  0  0  0  0  0  0  0  0
    1.4018   -4.2816   -0.1534 C   0  0  0  0  0  0  0  0  0  0  0  0
    1.9776   -3.1056    0.3228 C   0  0  0  0  0  0  0  0  0  0  0  0
    1.5764   -1.8717   -0.1918 C   0  0  0  0  0  0  0  0  0  0  0  0
   -2.8854    1.0411   -1.9286 H   0  0  0  0  0  0  0  0  0  0  0  0
   -1.7183    0.8246   -3.0541 H   0  0  0  0  0  0  0  0  0  0  0  0
   -1.9282   -0.7842   -1.1610 H   0  0  0  0  0  0  0  0  0  0  0  0
   -1.4753    2.2549    1.3217 H   0  0  0  0  0  0  0  0  0  0  0  0
   -1.8520    2.3713   -0.3718 H   0  0  0  0  0  0  0  0  0  0  0  0
   -0.7321   -2.9696   -2.4451 H   0  0  0  0  0  0  0  0  0  0  0  0
   -0.0177   -5.1452   -1.5215 H   0  0  0  0  0  0  0  0  0  0  0  0
    1.7163   -5.2411    0.2488 H   0  0  0  0  0  0  0  0  0  0  0  0
    2.7379   -3.1465    1.0987 H   0  0  0  0  0  0  0  0  0  0  0  0
    2.0310   -0.9610    0.1965 H   0  0  0  0  0  0  0  0  0  0  0  0
  1  2  1  0
  2  3  1  0
  3  4  1  0
  3  5  2  0
  2  6  1  0
  6  7  1  0
  6  8  1  0
  6  9  1  0
  9 10  2  0
 10 11  1  0
 11 12  2  0
 12 13  1  0
 13 14  2  0
 14  9  1  0
  1 15  1  0
  1 16  1  0
  2 17  1  1
  4 18  1  0
  4 19  1  0
 10 20  1  0
 11 21  1  0
 12 22  1  0
 13 23  1  0
 14 24  1  0
M  END
