
     RDKit          3D

 36 35  0  0  0  0  0  0  0  0999 V2000
   -1.3530    0.7605    3.7113 C   0  0  0  0  0  0  0  0  0  0  0  0
   -0.7329   -0.0260    2.5294 C   0  0  0  0  0  0  0  0  0  0  0  0
   -0.4364   -1.4519    3.0408 C   0  0  0  0  0  0  0  0  0  0  0  0
    0.6078    0.6470    2.1782 C   0  0  0  0  0  0  0  0  0  0  0  0
   -1.7564   -0.0719    1.3303 C   0  0  1  0  0  0  0  0  0  0  0  0
   -2.0681    1.2574    0.7717 N   0  0  0  0  0  0  0  0  0  0  0  0
   -1.4457   -1.0668    0.1796 C   0  0  0  0  0  0  0  0  0  0  0  0
   -0.2763   -0.7174   -0.6452 C   0  0  0  0  0  0  0  0  0  0  0  0
    0.6688   -0.4381   -1.3322 C   0  0  0  0  0  0  0  0  0  0  0  0
    2.1633    0.0160   -2.3988 Si  0  0  0  0  0  4  0  0  0  0  0  0
    1.5903    0.9152   -3.9409 C   0  0  0  0  0  0  0  0  0  0  0  0
    3.3085    1.1330   -1.4177 C   0  0  0  0  0  0  0  0  0  0  0  0
    3.0855   -1.5405   -2.8906 C   0  0  0  0  0  0  0  0  0  0  0  0
   -0.7126    0.7089    4.6000 H   0  0  0  0  0  0  0  0  0  0  0  0
   -1.4827    1.8216    3.4760 H   0  0  0  0  0  0  0  0  0  0  0  0
   -2.3310    0.3516    3.9887 H   0  0  0  0  0  0  0  0  0  0  0  0
    0.1687   -1.4274    3.9547 H   0  0  0  0  0  0  0  0  0  0  0  0
    0.1242   -2.0389    2.3060 H   0  0  0  0  0  0  0  0  0  0  0  0
   -1.3630   -1.9890    3.2722 H   0  0  0  0  0  0  0  0  0  0  0  0
    0.4668    1.6496    1.7625 H   0  0  0  0  0  0  0  0  0  0  0  0
    1.2335    0.7556    3.0726 H   0  0  0  0  0  0  0  0  0  0  0  0
    1.1892    0.0569    1.4661 H   0  0  0  0  0  0  0  0  0  0  0  0
   -2.7034   -0.4308    1.7583 H   0  0  0  0  0  0  0  0  0  0  0  0
   -1.2652    1.5925    0.2381 H   0  0  0  0  0  0  0  0  0  0  0  0
   -2.2238    1.9335    1.5146 H   0  0  0  0  0  0  0  0  0  0  0  0
   -1.3277   -2.0809    0.5760 H   0  0  0  0  0  0  0  0  0  0  0  0
   -2.3229   -1.1160   -0.4803 H   0  0  0  0  0  0  0  0  0  0  0  0
    2.4442    1.1886   -4.5679 H   0  0  0  0  0  0  0  0  0  0  0  0
    0.9212    0.2829   -4.5322 H   0  0  0  0  0  0  0  0  0  0  0  0
    1.0524    1.8310   -3.6783 H   0  0  0  0  0  0  0  0  0  0  0  0
    3.6585    0.6285   -0.5120 H   0  0  0  0  0  0  0  0  0  0  0  0
    2.7925    2.0509   -1.1204 H   0  0  0  0  0  0  0  0  0  0  0  0
    4.1824    1.4096   -2.0149 H   0  0  0  0  0  0  0  0  0  0  0  0
    3.9563   -1.2950   -3.5058 H   0  0  0  0  0  0  0  0  0  0  0  0
    2.4384   -2.2090   -3.4663 H   0  0  0  0  0  0  0  0  0  0  0  0
    3.4343   -2.0805   -2.0053 H   0  0  0  0  0  0  0  0  0  0  0  0
  1  2  1  0
  2  3  1  0
  2  4  1  0
  2  5  1  0
  5  6  1  0
  5  7  1  0
  7  8  1  0
  8  9  3  0
  9 10  1  0
 10 11  1  0
 10 12  1  0
 10 13  1  0
  1 14  1  0
  1 15  1  0
  1 16  1  0
  3 17  1  0
  3 18  1  0
  3 19  1  0
  4 20  1  0
  4 21  1  0
  4 22  1  0
  5 23  1  1
  6 24  1  0
  6 25  1  0
  7 26  1  0
  7 27  1  0
 11 28  1  0
 11 29  1  0
 11 30  1  0
 12 31  1  0
 12 32  1  0
 12 33  1  0
 13 34  1  0
 13 35  1  0
 13 36  1  0
M  END
