
     RDKit          3D

 36 37  0  0  0  0  0  0  0  0999 V2000
    2.7058   -3.0456   -1.1282 N   0  0  0  0  0  0  0  0  0  0  0  0
    2.2110   -1.6435   -1.1094 C   0  0  1  0  0  0  0  0  0  0  0  0
    1.1919   -1.3997   -2.2367 C   0  0  0  0  0  0  0  0  0  0  0  0
    0.8359    0.0556   -2.4224 C   0  0  0  0  0  0  0  0  0  0  0  0
    1.7429    0.9369   -3.0277 C   0  0  0  0  0  0  0  0  0  0  0  0
    1.4163    2.2832   -3.1974 C   0  0  0  0  0  0  0  0  0  0  0  0
    0.1812    2.7612   -2.7660 C   0  0  0  0  0  0  0  0  0  0  0  0
   -0.7272    1.8934   -2.1643 C   0  0  0  0  0  0  0  0  0  0  0  0
   -0.4023    0.5473   -1.9905 C   0  0  0  0  0  0  0  0  0  0  0  0
    1.6454   -1.2902    0.2815 C   0  0  0  0  0  0  0  0  0  0  0  0
    2.0648   -0.3531    0.9534 O   0  0  0  0  0  0  0  0  0  0  0  0
    0.3647   -2.3619    0.8783 S   0  0  0  0  0  0  0  0  0  0  0  0
   -0.2275   -1.3947    2.2916 C   0  0  0  0  0  0  0  0  0  0  0  0
   -1.2305   -0.3397    1.8959 C   0  0  0  0  0  0  0  0  0  0  0  0
   -0.8464    1.0042    1.7898 C   0  0  0  0  0  0  0  0  0  0  0  0
   -1.7762    1.9819    1.4322 C   0  0  0  0  0  0  0  0  0  0  0  0
   -3.0976    1.6267    1.1692 C   0  0  0  0  0  0  0  0  0  0  0  0
   -3.4907    0.2932    1.2620 C   0  0  0  0  0  0  0  0  0  0  0  0
   -2.5631   -0.6855    1.6232 C   0  0  0  0  0  0  0  0  0  0  0  0
    3.0405   -3.2746   -2.0631 H   0  0  0  0  0  0  0  0  0  0  0  0
    1.9231   -3.6753   -0.9409 H   0  0  0  0  0  0  0  0  0  0  0  0
    3.0887   -1.0028   -1.2608 H   0  0  0  0  0  0  0  0  0  0  0  0
    0.2776   -1.9849   -2.0763 H   0  0  0  0  0  0  0  0  0  0  0  0
    1.6016   -1.7620   -3.1899 H   0  0  0  0  0  0  0  0  0  0  0  0
    2.7117    0.5821   -3.3725 H   0  0  0  0  0  0  0  0  0  0  0  0
    2.1267    2.9597   -3.6652 H   0  0  0  0  0  0  0  0  0  0  0  0
   -0.0728    3.8096   -2.8961 H   0  0  0  0  0  0  0  0  0  0  0  0
   -1.6900    2.2642   -1.8224 H   0  0  0  0  0  0  0  0  0  0  0  0
   -1.1259   -0.1080   -1.5095 H   0  0  0  0  0  0  0  0  0  0  0  0
    0.6052   -0.9612    2.8563 H   0  0  0  0  0  0  0  0  0  0  0  0
   -0.7147   -2.0903    2.9856 H   0  0  0  0  0  0  0  0  0  0  0  0
    0.1847    1.2984    1.9810 H   0  0  0  0  0  0  0  0  0  0  0  0
   -1.4639    3.0200    1.3536 H   0  0  0  0  0  0  0  0  0  0  0  0
   -3.8200    2.3893    0.8909 H   0  0  0  0  0  0  0  0  0  0  0  0
   -4.5210    0.0151    1.0560 H   0  0  0  0  0  0  0  0  0  0  0  0
   -2.8860   -1.7221    1.6936 H   0  0  0  0  0  0  0  0  0  0  0  0
  1  2  1  0
  2  3  1  0
  3  4  1  0
  4  5  2  0
  5  6  1  0
  6  7  2  0
  7  8  1  0
  8  9  2  0
  2 10  1  0
 10 11  2  0
 10 12  1  0
 12 13  1  0
 13 14  1  0
 14 15  2  0
 15 16  1  0
 16 17  2  0
 17 18  1  0
 18 19  2  0
  9  4  1  0
 19 14  1  0
  1 20  1  0
  1 21  1  0
  2 22  1  6
  3 23  1  0
  3 24  1  0
  5 25  1  0
  6 26  1  0
  7 27  1  0
  8 28  1  0
  9 29  1  0
 13 30  1  0
 13 31  1  0
 15 32  1  0
 16 33  1  0
 17 34  1  0
 18 35  1  0
 19 36  1  0
M  END
