
     RDKit          3D

 20 19  0  0  0  0  0  0  0  0999 V2000
    2.6979    0.3682   -0.5828 C   0  0  0  0  0  0  0  0  0  0  0  0
    1.7881    1.5760   -0.3912 C   0  0  0  0  0  0  0  0  0  0  0  0
    0.5554    1.2694    0.4755 C   0  0  1  0  0  0  0  0  0  0  0  0
   -0.1904    2.5057    0.7027 N   0  0  0  0  0  0  0  0  0  0  0  0
   -0.3645    0.2673   -0.1678 C   0  0  0  0  0  0  0  0  0  0  0  0
   -0.7278   -0.8943    0.4003 C   0  0  0  0  0  0  0  0  0  0  0  0
   -1.6331   -1.8925   -0.2445 C   0  0  0  0  0  0  0  0  0  0  0  0
    3.5915    0.6574   -1.1453 H   0  0  0  0  0  0  0  0  0  0  0  0
    3.0214   -0.0356    0.3818 H   0  0  0  0  0  0  0  0  0  0  0  0
    2.1969   -0.4283   -1.1413 H   0  0  0  0  0  0  0  0  0  0  0  0
    1.4845    1.9510   -1.3774 H   0  0  0  0  0  0  0  0  0  0  0  0
    2.3755    2.3740    0.0814 H   0  0  0  0  0  0  0  0  0  0  0  0
    0.8970    0.9023    1.4511 H   0  0  0  0  0  0  0  0  0  0  0  0
   -0.5116    2.8817   -0.1868 H   0  0  0  0  0  0  0  0  0  0  0  0
   -1.0255    2.2896    1.2452 H   0  0  0  0  0  0  0  0  0  0  0  0
   -0.7376    0.5133   -1.1602 H   0  0  0  0  0  0  0  0  0  0  0  0
   -0.3556   -1.1519    1.3898 H   0  0  0  0  0  0  0  0  0  0  0  0
   -2.5174   -2.0512    0.3800 H   0  0  0  0  0  0  0  0  0  0  0  0
   -1.9680   -1.5689   -1.2350 H   0  0  0  0  0  0  0  0  0  0  0  0
   -1.1135   -2.8491   -0.3555 H   0  0  0  0  0  0  0  0  0  0  0  0
  1  2  1  0
  2  3  1  0
  3  4  1  0
  3  5  1  0
  5  6  2  0
  6  7  1  0
  1  8  1  0
  1  9  1  0
  1 10  1  0
  2 11  1  0
  2 12  1  0
  3 13  1  1
  4 14  1  0
  4 15  1  0
  5 16  1  0
  6 17  1  0
  7 18  1  0
  7 19  1  0
  7 20  1  0
M  END
