
     RDKit          3D

 28 28  0  0  0  0  0  0  0  0999 V2000
    3.2522    1.3856    0.3726 C   0  0  0  0  0  0  0  0  0  0  0  0
    2.4761    0.1446    0.7926 C   0  0  0  0  0  0  0  0  0  0  0  0
    2.3035   -0.8833   -0.3413 C   0  0  1  0  0  0  0  0  0  0  0  0
    1.6825   -2.1163    0.1933 N   0  0  0  0  0  0  0  0  0  0  0  0
    1.5880   -0.3373   -1.6372 C   0  0  1  0  0  0  0  0  0  0  0  0
    1.3175   -1.4327   -2.5899 N   0  0  0  0  0  0  0  0  0  0  0  0
    0.3066    0.4595   -1.4310 C   0  0  0  0  0  0  0  0  0  0  0  0
   -0.7212    0.0225   -0.5775 C   0  0  0  0  0  0  0  0  0  0  0  0
   -1.8912    0.7703   -0.4262 C   0  0  0  0  0  0  0  0  0  0  0  0
   -2.0468    1.9522   -1.1377 C   0  0  0  0  0  0  0  0  0  0  0  0
   -3.1699    2.6679   -0.9926 F   0  0  0  0  0  0  0  0  0  0  0  0
   -1.0573    2.3989   -2.0027 C   0  0  0  0  0  0  0  0  0  0  0  0
    0.1128    1.6521   -2.1536 C   0  0  0  0  0  0  0  0  0  0  0  0
    3.4273    2.0291    1.2408 H   0  0  0  0  0  0  0  0  0  0  0  0
    4.2256    1.1151   -0.0487 H   0  0  0  0  0  0  0  0  0  0  0  0
    2.7061    1.9746   -0.3690 H   0  0  0  0  0  0  0  0  0  0  0  0
    1.5055    0.4469    1.2017 H   0  0  0  0  0  0  0  0  0  0  0  0
    3.0226   -0.3252    1.6212 H   0  0  0  0  0  0  0  0  0  0  0  0
    3.3133   -1.1856   -0.6546 H   0  0  0  0  0  0  0  0  0  0  0  0
    1.7420   -2.8506   -0.5099 H   0  0  0  0  0  0  0  0  0  0  0  0
    2.2208   -2.4454    0.9945 H   0  0  0  0  0  0  0  0  0  0  0  0
    2.3161    0.3212   -2.1289 H   0  0  0  0  0  0  0  0  0  0  0  0
    0.5952   -2.0203   -2.1730 H   0  0  0  0  0  0  0  0  0  0  0  0
    2.1473   -2.0134   -2.6739 H   0  0  0  0  0  0  0  0  0  0  0  0
   -0.6205   -0.9063   -0.0212 H   0  0  0  0  0  0  0  0  0  0  0  0
   -2.6804    0.4337    0.2378 H   0  0  0  0  0  0  0  0  0  0  0  0
   -1.2040    3.3186   -2.5591 H   0  0  0  0  0  0  0  0  0  0  0  0
    0.8746    2.0008   -2.8478 H   0  0  0  0  0  0  0  0  0  0  0  0
  1  2  1  0
  2  3  1  0
  3  4  1  0
  3  5  1  0
  5  6  1  0
  5  7  1  0
  7  8  2  0
  8  9  1  0
  9 10  2  0
 10 11  1  0
 10 12  1  0
 12 13  2  0
 13  7  1  0
  1 14  1  0
  1 15  1  0
  1 16  1  0
  2 17  1  0
  2 18  1  0
  3 19  1  6
  4 20  1  0
  4 21  1  0
  5 22  1  6
  6 23  1  0
  6 24  1  0
  8 25  1  0
  9 26  1  0
 12 27  1  0
 13 28  1  0
M  END
