
     RDKit          3D

 27 27  0  0  0  0  0  0  0  0999 V2000
    1.3512   -2.0151   -2.7686 N   0  0  0  0  0  0  0  0  0  0  0  0
    1.8810   -1.5524   -1.5906 C   0  0  0  0  0  0  0  0  0  0  0  0
    3.0892   -1.6546   -1.3967 O   0  0  0  0  0  0  0  0  0  0  0  0
    0.9009   -0.8165   -0.6367 C   0  0  0  0  0  0  0  0  0  0  0  0
    0.3868    0.3804   -1.3926 N   0  0  0  0  0  0  0  0  0  0  0  0
    1.6875   -0.3783    0.6284 C   0  0  0  0  0  0  0  0  0  0  0  0
    0.8550    0.1679    1.7687 C   0  0  0  0  0  0  0  0  0  0  0  0
    0.3109    1.4571    1.7103 C   0  0  0  0  0  0  0  0  0  0  0  0
   -0.4663    1.9470    2.7612 C   0  0  0  0  0  0  0  0  0  0  0  0
   -0.7051    1.1548    3.8821 C   0  0  0  0  0  0  0  0  0  0  0  0
   -0.1657   -0.1275    3.9542 C   0  0  0  0  0  0  0  0  0  0  0  0
    0.6113   -0.6192    2.9041 C   0  0  0  0  0  0  0  0  0  0  0  0
   -0.2200   -1.8062   -0.2610 C   0  0  0  0  0  0  0  0  0  0  0  0
   -0.8691   -2.2310   -1.3861 F   0  0  0  0  0  0  0  0  0  0  0  0
    0.2944   -2.9214    0.3184 F   0  0  0  0  0  0  0  0  0  0  0  0
    0.3733   -2.2920   -2.7944 H   0  0  0  0  0  0  0  0  0  0  0  0
    1.9825   -2.5756   -3.3292 H   0  0  0  0  0  0  0  0  0  0  0  0
    1.1925    0.9414   -1.6785 H   0  0  0  0  0  0  0  0  0  0  0  0
   -0.0289    0.0457   -2.2653 H   0  0  0  0  0  0  0  0  0  0  0  0
    2.2736   -1.2280    1.0069 H   0  0  0  0  0  0  0  0  0  0  0  0
    2.4417    0.3762    0.3619 H   0  0  0  0  0  0  0  0  0  0  0  0
    0.4862    2.0906    0.8433 H   0  0  0  0  0  0  0  0  0  0  0  0
   -0.8844    2.9486    2.7043 H   0  0  0  0  0  0  0  0  0  0  0  0
   -1.3087    1.5383    4.7005 H   0  0  0  0  0  0  0  0  0  0  0  0
   -0.3476   -0.7448    4.8302 H   0  0  0  0  0  0  0  0  0  0  0  0
    1.0258   -1.6228    2.9809 H   0  0  0  0  0  0  0  0  0  0  0  0
   -0.9720   -1.3761    0.4059 H   0  0  0  0  0  0  0  0  0  0  0  0
  1  2  1  0
  2  3  2  0
  2  4  1  0
  4  5  1  0
  4  6  1  0
  6  7  1  0
  7  8  2  0
  8  9  1  0
  9 10  2  0
 10 11  1  0
 11 12  2  0
  4 13  1  0
 13 14  1  0
 13 15  1  0
 12  7  1  0
  1 16  1  0
  1 17  1  0
  5 18  1  0
  5 19  1  0
  6 20  1  0
  6 21  1  0
  8 22  1  0
  9 23  1  0
 10 24  1  0
 11 25  1  0
 12 26  1  0
 13 27  1  0
M  END
