
     RDKit          3D

 34 34  0  0  0  0  0  0  0  0999 V2000
   -1.1397    4.0339   -1.9827 C   0  0  0  0  0  0  0  0  0  0  0  0
   -0.5832    4.3221   -0.5823 C   0  0  0  0  0  0  0  0  0  0  0  0
    0.9448    4.4432   -0.6500 C   0  0  0  0  0  0  0  0  0  0  0  0
   -1.0205    3.3039    0.5007 C   0  0  1  0  0  0  0  0  0  0  0  0
   -2.4716    3.3191    0.6877 N   0  0  0  0  0  0  0  0  0  0  0  0
   -0.5958    1.9252    0.1987 C   0  0  0  0  0  0  0  0  0  0  0  0
   -0.2515    0.8010   -0.0499 C   0  0  0  0  0  0  0  0  0  0  0  0
    0.1749   -0.5714   -0.3631 C   0  0  0  0  0  0  0  0  0  0  0  0
    1.0053   -0.6078   -1.6471 C   0  0  0  0  0  0  0  0  0  0  0  0
    1.4505   -2.0090   -1.9861 C   0  0  0  0  0  0  0  0  0  0  0  0
    2.6574   -2.5122   -1.4824 C   0  0  0  0  0  0  0  0  0  0  0  0
    3.0588   -3.8153   -1.7804 C   0  0  0  0  0  0  0  0  0  0  0  0
    2.2568   -4.6275   -2.5799 C   0  0  0  0  0  0  0  0  0  0  0  0
    1.0521   -4.1382   -3.0813 C   0  0  0  0  0  0  0  0  0  0  0  0
    0.6487   -2.8354   -2.7847 C   0  0  0  0  0  0  0  0  0  0  0  0
   -0.8170    4.8076   -2.6883 H   0  0  0  0  0  0  0  0  0  0  0  0
   -0.7913    3.0703   -2.3683 H   0  0  0  0  0  0  0  0  0  0  0  0
   -2.2338    4.0300   -1.9872 H   0  0  0  0  0  0  0  0  0  0  0  0
   -0.9643    5.3081   -0.2807 H   0  0  0  0  0  0  0  0  0  0  0  0
    1.2368    5.2511   -1.3299 H   0  0  0  0  0  0  0  0  0  0  0  0
    1.4106    3.5204   -1.0111 H   0  0  0  0  0  0  0  0  0  0  0  0
    1.3613    4.6739    0.3361 H   0  0  0  0  0  0  0  0  0  0  0  0
   -0.5689    3.6063    1.4538 H   0  0  0  0  0  0  0  0  0  0  0  0
   -2.7044    2.6666    1.4356 H   0  0  0  0  0  0  0  0  0  0  0  0
   -2.9152    2.9412   -0.1480 H   0  0  0  0  0  0  0  0  0  0  0  0
    0.7578   -0.9723    0.4750 H   0  0  0  0  0  0  0  0  0  0  0  0
   -0.7088   -1.2128   -0.4667 H   0  0  0  0  0  0  0  0  0  0  0  0
    1.8864    0.0408   -1.5508 H   0  0  0  0  0  0  0  0  0  0  0  0
    0.4292   -0.1955   -2.4864 H   0  0  0  0  0  0  0  0  0  0  0  0
    3.2932   -1.8913   -0.8551 H   0  0  0  0  0  0  0  0  0  0  0  0
    3.9978   -4.1970   -1.3881 H   0  0  0  0  0  0  0  0  0  0  0  0
    2.5703   -5.6419   -2.8116 H   0  0  0  0  0  0  0  0  0  0  0  0
    0.4259   -4.7719   -3.7039 H   0  0  0  0  0  0  0  0  0  0  0  0
   -0.2953   -2.4689   -3.1817 H   0  0  0  0  0  0  0  0  0  0  0  0
  1  2  1  0
  2  3  1  0
  2  4  1  0
  4  5  1  0
  4  6  1  0
  6  7  3  0
  7  8  1  0
  8  9  1  0
  9 10  1  0
 10 11  2  0
 11 12  1  0
 12 13  2  0
 13 14  1  0
 14 15  2  0
 15 10  1  0
  1 16  1  0
  1 17  1  0
  1 18  1  0
  2 19  1  0
  3 20  1  0
  3 21  1  0
  3 22  1  0
  4 23  1  1
  5 24  1  0
  5 25  1  0
  8 26  1  0
  8 27  1  0
  9 28  1  0
  9 29  1  0
 11 30  1  0
 12 31  1  0
 13 32  1  0
 14 33  1  0
 15 34  1  0
M  END
