
     RDKit          3D

 22 21  0  0  0  0  0  0  0  0999 V2000
   -1.7461    1.3697   -3.1229 C   0  0  0  0  0  0  0  0  0  0  0  0
   -0.8155    0.9644   -1.9898 C   0  0  0  0  0  0  0  0  0  0  0  0
   -1.2637   -0.3459   -1.3423 C   0  0  0  0  0  0  0  0  0  0  0  0
   -0.2865   -0.8722   -0.2819 C   0  0  0  0  0  0  0  0  0  0  0  0
   -0.0029    0.0616    0.9156 C   0  0  1  0  0  0  0  0  0  0  0  0
   -1.2644    0.3894    1.6301 N   0  0  0  0  0  0  0  0  0  0  0  0
    1.0987   -0.5802    1.8096 C   0  0  0  0  0  0  0  0  0  0  0  0
    1.4288    0.2180    2.8491 F   0  0  0  0  0  0  0  0  0  0  0  0
    0.6882   -1.7679    2.3137 F   0  0  0  0  0  0  0  0  0  0  0  0
    2.2293   -0.8059    1.1006 F   0  0  0  0  0  0  0  0  0  0  0  0
   -1.7630    0.6080   -3.9089 H   0  0  0  0  0  0  0  0  0  0  0  0
   -2.7687    1.5110   -2.7586 H   0  0  0  0  0  0  0  0  0  0  0  0
   -1.4113    2.3110   -3.5698 H   0  0  0  0  0  0  0  0  0  0  0  0
   -0.7986    1.7698   -1.2480 H   0  0  0  0  0  0  0  0  0  0  0  0
    0.2026    0.8580   -2.3817 H   0  0  0  0  0  0  0  0  0  0  0  0
   -1.3586   -1.1141   -2.1207 H   0  0  0  0  0  0  0  0  0  0  0  0
   -2.2646   -0.2266   -0.9121 H   0  0  0  0  0  0  0  0  0  0  0  0
   -0.6741   -1.8300    0.0903 H   0  0  0  0  0  0  0  0  0  0  0  0
    0.6622   -1.1033   -0.7838 H   0  0  0  0  0  0  0  0  0  0  0  0
    0.4106    1.0063    0.5463 H   0  0  0  0  0  0  0  0  0  0  0  0
   -1.6779   -0.4679    2.0009 H   0  0  0  0  0  0  0  0  0  0  0  0
   -1.9444    0.7892    0.9863 H   0  0  0  0  0  0  0  0  0  0  0  0
  1  2  1  0
  2  3  1  0
  3  4  1  0
  4  5  1  0
  5  6  1  0
  5  7  1  0
  7  8  1  0
  7  9  1  0
  7 10  1  0
  1 11  1  0
  1 12  1  0
  1 13  1  0
  2 14  1  0
  2 15  1  0
  3 16  1  0
  3 17  1  0
  4 18  1  0
  4 19  1  0
  5 20  1  6
  6 21  1  0
  6 22  1  0
M  END
