
     RDKit          3D

 28 27  0  0  0  0  0  0  0  0999 V2000
   -2.9462   -0.3313   -2.0321 C   0  0  0  0  0  0  0  0  0  0  0  0
   -2.1987    0.9905   -2.1200 C   0  0  0  0  0  0  0  0  0  0  0  0
   -0.8395    0.9703   -1.4130 C   0  0  0  0  0  0  0  0  0  0  0  0
   -0.9501    0.7497    0.0969 C   0  0  0  0  0  0  0  0  0  0  0  0
    0.3221    1.0921    0.9016 C   0  0  1  0  0  0  0  0  0  0  0  0
   -0.0429    0.9619    2.3238 N   0  0  0  0  0  0  0  0  0  0  0  0
    1.6006    0.2540    0.6194 C   0  0  0  0  0  0  0  0  0  0  0  0
    2.3613    0.7237   -0.6248 C   0  0  0  0  0  0  0  0  0  0  0  0
    1.3587   -1.2563    0.5534 C   0  0  0  0  0  0  0  0  0  0  0  0
   -2.3354   -1.1544   -2.4160 H   0  0  0  0  0  0  0  0  0  0  0  0
   -3.8639   -0.2841   -2.6271 H   0  0  0  0  0  0  0  0  0  0  0  0
   -3.2310   -0.5626   -1.0015 H   0  0  0  0  0  0  0  0  0  0  0  0
   -2.0366    1.2308   -3.1776 H   0  0  0  0  0  0  0  0  0  0  0  0
   -2.8232    1.7908   -1.7061 H   0  0  0  0  0  0  0  0  0  0  0  0
   -0.2311    0.1797   -1.8621 H   0  0  0  0  0  0  0  0  0  0  0  0
   -0.3381    1.9256   -1.6081 H   0  0  0  0  0  0  0  0  0  0  0  0
   -1.7690    1.3805    0.4709 H   0  0  0  0  0  0  0  0  0  0  0  0
   -1.2536   -0.2862    0.2933 H   0  0  0  0  0  0  0  0  0  0  0  0
    0.5563    2.1514    0.7385 H   0  0  0  0  0  0  0  0  0  0  0  0
   -0.2803   -0.0059    2.5359 H   0  0  0  0  0  0  0  0  0  0  0  0
    0.7595    1.1934    2.9079 H   0  0  0  0  0  0  0  0  0  0  0  0
    2.2927    0.4268    1.4567 H   0  0  0  0  0  0  0  0  0  0  0  0
    3.3590    0.2707   -0.6489 H   0  0  0  0  0  0  0  0  0  0  0  0
    2.4956    1.8103   -0.6165 H   0  0  0  0  0  0  0  0  0  0  0  0
    1.8640    0.4445   -1.5552 H   0  0  0  0  0  0  0  0  0  0  0  0
    0.7412   -1.5307   -0.3075 H   0  0  0  0  0  0  0  0  0  0  0  0
    0.8671   -1.6239    1.4591 H   0  0  0  0  0  0  0  0  0  0  0  0
    2.3101   -1.7913    0.4580 H   0  0  0  0  0  0  0  0  0  0  0  0
  1  2  1  0
  2  3  1  0
  3  4  1  0
  4  5  1  0
  5  6  1  0
  5  7  1  0
  7  8  1  0
  7  9  1  0
  1 10  1  0
  1 11  1  0
  1 12  1  0
  2 13  1  0
  2 14  1  0
  3 15  1  0
  3 16  1  0
  4 17  1  0
  4 18  1  0
  5 19  1  1
  6 20  1  0
  6 21  1  0
  7 22  1  0
  8 23  1  0
  8 24  1  0
  8 25  1  0
  9 26  1  0
  9 27  1  0
  9 28  1  0
M  END
