
     RDKit          3D

 38 38  0  0  0  0  0  0  0  0999 V2000
   -1.6255   -1.5962    0.7978 C   0  0  0  0  0  0  0  0  0  0  0  0
   -0.9050   -1.9352   -0.5002 C   0  0  0  0  0  0  0  0  0  0  0  0
    0.5534   -1.4179   -0.5779 C   0  0  0  0  0  0  0  0  0  0  0  0
    1.1957   -1.8086   -1.9344 C   0  0  0  0  0  0  0  0  0  0  0  0
    1.3505   -3.3121   -2.1301 C   0  0  0  0  0  0  0  0  0  0  0  0
    0.6818    0.1118   -0.2803 C   0  0  1  0  0  0  0  0  0  0  0  0
    2.1032    0.4791   -0.1805 N   0  0  0  0  0  0  0  0  0  0  0  0
   -0.0246    1.0015   -1.3263 C   0  0  0  0  0  0  0  0  0  0  0  0
   -0.0655    2.5003   -0.9885 C   0  0  0  0  0  0  0  0  0  0  0  0
   -0.8477    2.8246    0.2613 C   0  0  0  0  0  0  0  0  0  0  0  0
   -0.1956    3.3045    1.4050 C   0  0  0  0  0  0  0  0  0  0  0  0
   -0.9185    3.5929    2.5639 C   0  0  0  0  0  0  0  0  0  0  0  0
   -2.2992    3.4077    2.5903 C   0  0  0  0  0  0  0  0  0  0  0  0
   -2.9591    2.9370    1.4572 C   0  0  0  0  0  0  0  0  0  0  0  0
   -2.2379    2.6486    0.2976 C   0  0  0  0  0  0  0  0  0  0  0  0
   -1.0334   -1.8976    1.6675 H   0  0  0  0  0  0  0  0  0  0  0  0
   -2.5839   -2.1238    0.8418 H   0  0  0  0  0  0  0  0  0  0  0  0
   -1.8405   -0.5268    0.8729 H   0  0  0  0  0  0  0  0  0  0  0  0
   -0.9020   -3.0277   -0.5879 H   0  0  0  0  0  0  0  0  0  0  0  0
   -1.4920   -1.5618   -1.3469 H   0  0  0  0  0  0  0  0  0  0  0  0
    1.1119   -1.9431    0.2113 H   0  0  0  0  0  0  0  0  0  0  0  0
    0.6022   -1.4076   -2.7642 H   0  0  0  0  0  0  0  0  0  0  0  0
    2.1944   -1.3649   -2.0168 H   0  0  0  0  0  0  0  0  0  0  0  0
    0.3818   -3.8088   -2.2337 H   0  0  0  0  0  0  0  0  0  0  0  0
    1.9192   -3.5127   -3.0440 H   0  0  0  0  0  0  0  0  0  0  0  0
    1.8883   -3.7652   -1.2915 H   0  0  0  0  0  0  0  0  0  0  0  0
    0.2475    0.2986    0.7071 H   0  0  0  0  0  0  0  0  0  0  0  0
    2.5644   -0.1408    0.4851 H   0  0  0  0  0  0  0  0  0  0  0  0
    2.1848    1.4147    0.2140 H   0  0  0  0  0  0  0  0  0  0  0  0
   -1.0517    0.6504   -1.4747 H   0  0  0  0  0  0  0  0  0  0  0  0
    0.4764    0.8959   -2.2971 H   0  0  0  0  0  0  0  0  0  0  0  0
    0.9514    2.9036   -0.9173 H   0  0  0  0  0  0  0  0  0  0  0  0
   -0.5308    3.0378   -1.8254 H   0  0  0  0  0  0  0  0  0  0  0  0
    0.8807    3.4582    1.4022 H   0  0  0  0  0  0  0  0  0  0  0  0
   -0.4039    3.9644    3.4461 H   0  0  0  0  0  0  0  0  0  0  0  0
   -2.8613    3.6335    3.4925 H   0  0  0  0  0  0  0  0  0  0  0  0
   -4.0366    2.7959    1.4751 H   0  0  0  0  0  0  0  0  0  0  0  0
   -2.7683    2.2854   -0.5797 H   0  0  0  0  0  0  0  0  0  0  0  0
  1  2  1  0
  2  3  1  0
  3  4  1  0
  4  5  1  0
  3  6  1  0
  6  7  1  0
  6  8  1  0
  8  9  1  0
  9 10  1  0
 10 11  2  0
 11 12  1  0
 12 13  2  0
 13 14  1  0
 14 15  2  0
 15 10  1  0
  1 16  1  0
  1 17  1  0
  1 18  1  0
  2 19  1  0
  2 20  1  0
  3 21  1  0
  4 22  1  0
  4 23  1  0
  5 24  1  0
  5 25  1  0
  5 26  1  0
  6 27  1  1
  7 28  1  0
  7 29  1  0
  8 30  1  0
  8 31  1  0
  9 32  1  0
  9 33  1  0
 11 34  1  0
 12 35  1  0
 13 36  1  0
 14 37  1  0
 15 38  1  0
M  END
