
     RDKit          3D

 31 32  0  0  0  0  0  0  0  0999 V2000
   -1.3488    3.6775    3.1872 N   0  0  0  0  0  0  0  0  0  0  0  0
   -0.9874    4.2047    1.8678 C   0  0  0  0  0  0  0  0  0  0  0  0
   -0.2940    3.1744    0.9331 C   0  0  1  0  0  0  0  0  0  0  0  0
    0.8348    2.5306    1.6311 N   0  0  0  0  0  0  0  0  0  0  0  0
   -1.3075    2.1239    0.4168 C   0  0  0  0  0  0  0  0  0  0  0  0
   -0.8890    1.4568   -0.8838 C   0  0  0  0  0  0  0  0  0  0  0  0
   -0.2169    0.2022   -0.9428 C   0  0  0  0  0  0  0  0  0  0  0  0
    0.1489   -0.5577    0.1924 C   0  0  0  0  0  0  0  0  0  0  0  0
    0.8013   -1.7888    0.0805 C   0  0  0  0  0  0  0  0  0  0  0  0
    1.1092   -2.2979   -1.1727 C   0  0  0  0  0  0  0  0  0  0  0  0
    0.7683   -1.5735   -2.3126 C   0  0  0  0  0  0  0  0  0  0  0  0
    0.1135   -0.3341   -2.2154 C   0  0  0  0  0  0  0  0  0  0  0  0
   -0.2114    0.3727   -3.3819 C   0  0  0  0  0  0  0  0  0  0  0  0
   -0.8577    1.6022   -3.3155 C   0  0  0  0  0  0  0  0  0  0  0  0
   -1.1930    2.1392   -2.0783 C   0  0  0  0  0  0  0  0  0  0  0  0
   -1.9092    2.8335    3.0827 H   0  0  0  0  0  0  0  0  0  0  0  0
   -0.5033    3.4055    3.6846 H   0  0  0  0  0  0  0  0  0  0  0  0
   -1.8863    4.6041    1.3851 H   0  0  0  0  0  0  0  0  0  0  0  0
   -0.3135    5.0559    2.0230 H   0  0  0  0  0  0  0  0  0  0  0  0
    0.1143    3.7317    0.0810 H   0  0  0  0  0  0  0  0  0  0  0  0
    1.4637    3.2485    1.9882 H   0  0  0  0  0  0  0  0  0  0  0  0
    0.4909    2.0162    2.4378 H   0  0  0  0  0  0  0  0  0  0  0  0
   -2.2732    2.6151    0.2304 H   0  0  0  0  0  0  0  0  0  0  0  0
   -1.5384    1.3783    1.1863 H   0  0  0  0  0  0  0  0  0  0  0  0
   -0.0587   -0.1929    1.1933 H   0  0  0  0  0  0  0  0  0  0  0  0
    1.0709   -2.3423    0.9758 H   0  0  0  0  0  0  0  0  0  0  0  0
    1.6180   -3.2532   -1.2655 H   0  0  0  0  0  0  0  0  0  0  0  0
    1.0219   -1.9860   -3.2868 H   0  0  0  0  0  0  0  0  0  0  0  0
    0.0416   -0.0322   -4.3593 H   0  0  0  0  0  0  0  0  0  0  0  0
   -1.1003    2.1396   -4.2281 H   0  0  0  0  0  0  0  0  0  0  0  0
   -1.7006    3.1011   -2.0466 H   0  0  0  0  0  0  0  0  0  0  0  0
  1  2  1  0
  2  3  1  0
  3  4  1  0
  3  5  1  0
  5  6  1  0
  6  7  2  0
  7  8  1  0
  8  9  2  0
  9 10  1  0
 10 11  2  0
 11 12  1  0
 12 13  2  0
 13 14  1  0
 14 15  2  0
 15  6  1  0
 12  7  1  0
  1 16  1  0
  1 17  1  0
  2 18  1  0
  2 19  1  0
  3 20  1  6
  4 21  1  0
  4 22  1  0
  5 23  1  0
  5 24  1  0
  8 25  1  0
  9 26  1  0
 10 27  1  0
 11 28  1  0
 13 29  1  0
 14 30  1  0
 15 31  1  0
M  END
