
     RDKit          3D

 46 47  0  0  0  0  0  0  0  0999 V2000
   -2.8791    1.1226    1.7539 C   0  0  0  0  0  0  0  0  0  0  0  0
   -2.3664   -0.1283    1.0288 C   0  0  2  0  0  0  0  0  0  0  0  0
   -3.5774   -0.9256    0.5655 C   0  0  0  0  0  0  0  0  0  0  0  0
   -4.1724   -1.9439    1.2018 C   0  0  0  0  0  0  0  0  0  0  0  0
   -1.3169   -0.9162    1.8765 C   0  0  1  0  0  0  0  0  0  0  0  0
   -0.8219   -2.1106    1.1772 N   0  0  0  0  0  0  0  0  0  0  0  0
   -0.1186   -0.0812    2.3770 C   0  0  0  0  0  0  0  0  0  0  0  0
    0.6934    0.7648    1.3767 C   0  0  0  0  0  0  0  0  0  0  0  0
    1.7165   -0.0115    0.4998 C   0  0  0  0  0  0  0  0  0  0  0  0
    3.0197    0.7767    0.3270 C   0  0  0  0  0  0  0  0  0  0  0  0
    3.0265    2.1192   -0.0860 C   0  0  0  0  0  0  0  0  0  0  0  0
    4.2293    2.8102   -0.2468 C   0  0  0  0  0  0  0  0  0  0  0  0
    5.4416    2.1692   -0.0030 C   0  0  0  0  0  0  0  0  0  0  0  0
    5.4532    0.8358    0.3988 C   0  0  0  0  0  0  0  0  0  0  0  0
    4.2516    0.1431    0.5602 C   0  0  0  0  0  0  0  0  0  0  0  0
    1.2012   -0.4817   -0.8596 C   0  0  0  0  0  0  0  0  0  0  0  0
    1.5373   -1.7709   -1.3112 C   0  0  0  0  0  0  0  0  0  0  0  0
    1.0931   -2.2381   -2.5495 C   0  0  0  0  0  0  0  0  0  0  0  0
    0.3185   -1.4189   -3.3654 C   0  0  0  0  0  0  0  0  0  0  0  0
   -0.0035   -0.1305   -2.9471 C   0  0  0  0  0  0  0  0  0  0  0  0
    0.4403    0.3375   -1.7076 C   0  0  0  0  0  0  0  0  0  0  0  0
   -3.6446    1.6380    1.1620 H   0  0  0  0  0  0  0  0  0  0  0  0
   -3.3213    0.8656    2.7230 H   0  0  0  0  0  0  0  0  0  0  0  0
   -2.0760    1.8443    1.9297 H   0  0  0  0  0  0  0  0  0  0  0  0
   -1.8675    0.2060    0.1108 H   0  0  0  0  0  0  0  0  0  0  0  0
   -4.0032   -0.6039   -0.3850 H   0  0  0  0  0  0  0  0  0  0  0  0
   -5.0426   -2.4303    0.7703 H   0  0  0  0  0  0  0  0  0  0  0  0
   -3.8290   -2.3106    2.1635 H   0  0  0  0  0  0  0  0  0  0  0  0
   -1.8171   -1.2806    2.7838 H   0  0  0  0  0  0  0  0  0  0  0  0
   -1.5971   -2.7662    1.0676 H   0  0  0  0  0  0  0  0  0  0  0  0
   -0.5912   -1.8584    0.2147 H   0  0  0  0  0  0  0  0  0  0  0  0
    0.5710   -0.7353    2.9287 H   0  0  0  0  0  0  0  0  0  0  0  0
   -0.5036    0.6101    3.1396 H   0  0  0  0  0  0  0  0  0  0  0  0
    1.2564    1.4657    2.0105 H   0  0  0  0  0  0  0  0  0  0  0  0
    0.0286    1.3971    0.7821 H   0  0  0  0  0  0  0  0  0  0  0  0
    1.9745   -0.9105    1.0779 H   0  0  0  0  0  0  0  0  0  0  0  0
    2.0940    2.6391   -0.2889 H   0  0  0  0  0  0  0  0  0  0  0  0
    4.2193    3.8487   -0.5667 H   0  0  0  0  0  0  0  0  0  0  0  0
    6.3770    2.7070   -0.1308 H   0  0  0  0  0  0  0  0  0  0  0  0
    6.3982    0.3320    0.5836 H   0  0  0  0  0  0  0  0  0  0  0  0
    4.2833   -0.8997    0.8681 H   0  0  0  0  0  0  0  0  0  0  0  0
    2.1444   -2.4266   -0.6897 H   0  0  0  0  0  0  0  0  0  0  0  0
    1.3573   -3.2401   -2.8769 H   0  0  0  0  0  0  0  0  0  0  0  0
   -0.0235   -1.7797   -4.3315 H   0  0  0  0  0  0  0  0  0  0  0  0
   -0.5934    0.5168   -3.5908 H   0  0  0  0  0  0  0  0  0  0  0  0
    0.1899    1.3553   -1.4224 H   0  0  0  0  0  0  0  0  0  0  0  0
  1  2  1  0
  2  3  1  0
  3  4  2  3
  2  5  1  0
  5  6  1  0
  5  7  1  0
  7  8  1  0
  8  9  1  0
  9 10  1  0
 10 11  2  0
 11 12  1  0
 12 13  2  0
 13 14  1  0
 14 15  2  0
  9 16  1  0
 16 17  2  0
 17 18  1  0
 18 19  2  0
 19 20  1  0
 20 21  2  0
 15 10  1  0
 21 16  1  0
  1 22  1  0
  1 23  1  0
  1 24  1  0
  2 25  1  6
  3 26  1  0
  4 27  1  0
  4 28  1  0
  5 29  1  1
  6 30  1  0
  6 31  1  0
  7 32  1  0
  7 33  1  0
  8 34  1  0
  8 35  1  0
  9 36  1  0
 11 37  1  0
 12 38  1  0
 13 39  1  0
 14 40  1  0
 15 41  1  0
 17 42  1  0
 18 43  1  0
 19 44  1  0
 20 45  1  0
 21 46  1  0
M  END
