
     RDKit          3D

 33 33  0  0  0  0  0  0  0  0999 V2000
    0.0592   -2.6223    2.1167 C   0  0  0  0  0  0  0  0  0  0  0  0
    0.6721   -1.2870    2.5541 C   0  0  0  0  0  0  0  0  0  0  0  0
    2.1138   -1.1934    2.0453 C   0  0  0  0  0  0  0  0  0  0  0  0
   -0.1840   -0.0467    2.1621 C   0  0  2  0  0  0  0  0  0  0  0  0
   -1.4663   -0.1130    2.9047 N   0  0  0  0  0  0  0  0  0  0  0  0
   -0.3770    0.1306    0.6257 C   0  0  0  0  0  0  0  0  0  0  0  0
    0.8388    0.3255    0.0439 F   0  0  0  0  0  0  0  0  0  0  0  0
   -1.4198    1.6003    0.2546 S   0  0  0  0  0  0  0  0  0  0  0  0
   -1.7985    1.2871   -1.4591 C   0  0  0  0  0  0  0  0  0  0  0  0
   -3.1369    1.2435   -1.8595 C   0  0  0  0  0  0  0  0  0  0  0  0
   -3.4699    1.0080   -3.1966 C   0  0  0  0  0  0  0  0  0  0  0  0
   -2.4675    0.8327   -4.1565 C   0  0  0  0  0  0  0  0  0  0  0  0
   -2.8236    0.5480   -5.5855 C   0  0  0  0  0  0  0  0  0  0  0  0
   -1.1282    0.8769   -3.7544 C   0  0  0  0  0  0  0  0  0  0  0  0
   -0.7965    1.1123   -2.4168 C   0  0  0  0  0  0  0  0  0  0  0  0
    0.0298   -2.7171    1.0267 H   0  0  0  0  0  0  0  0  0  0  0  0
   -0.9592   -2.7426    2.4986 H   0  0  0  0  0  0  0  0  0  0  0  0
    0.6530   -3.4584    2.5026 H   0  0  0  0  0  0  0  0  0  0  0  0
    0.7354   -1.3053    3.6518 H   0  0  0  0  0  0  0  0  0  0  0  0
    2.1766   -1.3360    0.9624 H   0  0  0  0  0  0  0  0  0  0  0  0
    2.7320   -1.9694    2.5105 H   0  0  0  0  0  0  0  0  0  0  0  0
    2.5566   -0.2239    2.2951 H   0  0  0  0  0  0  0  0  0  0  0  0
    0.3540    0.8385    2.5286 H   0  0  0  0  0  0  0  0  0  0  0  0
   -2.0202    0.7137    2.6670 H   0  0  0  0  0  0  0  0  0  0  0  0
   -1.2796   -0.0493    3.9053 H   0  0  0  0  0  0  0  0  0  0  0  0
   -0.8375   -0.7573    0.1821 H   0  0  0  0  0  0  0  0  0  0  0  0
   -3.9346    1.3869   -1.1343 H   0  0  0  0  0  0  0  0  0  0  0  0
   -4.5186    0.9666   -3.4827 H   0  0  0  0  0  0  0  0  0  0  0  0
   -2.0565    0.9357   -6.2640 H   0  0  0  0  0  0  0  0  0  0  0  0
   -2.9194   -0.5312   -5.7391 H   0  0  0  0  0  0  0  0  0  0  0  0
   -3.7692    1.0296   -5.8559 H   0  0  0  0  0  0  0  0  0  0  0  0
   -0.3309    0.7351   -4.4807 H   0  0  0  0  0  0  0  0  0  0  0  0
    0.2534    1.1641   -2.1380 H   0  0  0  0  0  0  0  0  0  0  0  0
  1  2  1  0
  2  3  1  0
  2  4  1  0
  4  5  1  0
  4  6  1  0
  6  7  1  0
  6  8  1  0
  8  9  1  0
  9 10  2  0
 10 11  1  0
 11 12  2  0
 12 13  1  0
 12 14  1  0
 14 15  2  0
 15  9  1  0
  1 16  1  0
  1 17  1  0
  1 18  1  0
  2 19  1  0
  3 20  1  0
  3 21  1  0
  3 22  1  0
  4 23  1  1
  5 24  1  0
  5 25  1  0
  6 26  1  0
 10 27  1  0
 11 28  1  0
 13 29  1  0
 13 30  1  0
 13 31  1  0
 14 32  1  0
 15 33  1  0
M  END
