
     RDKit          3D

 29 29  0  0  0  0  0  0  0  0999 V2000
    2.4063    1.8066    0.3616 C   0  0  1  0  0  0  0  0  0  0  0  0
    3.5792    2.0956   -0.5763 C   0  0  0  0  0  0  0  0  0  0  0  0
    1.9833    3.0687    0.9617 N   0  0  0  0  0  0  0  0  0  0  0  0
    1.2766    1.0843   -0.4036 C   0  0  0  0  0  0  0  0  0  0  0  0
    0.0767    0.6492    0.4754 C   0  0  0  0  0  0  0  0  0  0  0  0
   -0.4878   -0.7071    0.0081 C   0  0  0  0  0  0  0  0  0  0  0  0
   -1.2310   -0.6135   -1.3224 C   0  0  0  0  0  0  0  0  0  0  0  0
   -2.3545    0.4147   -1.2574 C   0  0  0  0  0  0  0  0  0  0  0  0
   -1.8474    1.7778   -0.8005 C   0  0  0  0  0  0  0  0  0  0  0  0
   -1.0623    1.6875    0.5090 C   0  0  0  0  0  0  0  0  0  0  0  0
    2.7681    1.1513    1.1628 H   0  0  0  0  0  0  0  0  0  0  0  0
    3.2827    2.7518   -1.4025 H   0  0  0  0  0  0  0  0  0  0  0  0
    4.4029    2.5788   -0.0387 H   0  0  0  0  0  0  0  0  0  0  0  0
    3.9680    1.1666   -1.0074 H   0  0  0  0  0  0  0  0  0  0  0  0
    1.5350    3.6542    0.2582 H   0  0  0  0  0  0  0  0  0  0  0  0
    1.2829    2.8935    1.6797 H   0  0  0  0  0  0  0  0  0  0  0  0
    1.7247    0.1909   -0.8590 H   0  0  0  0  0  0  0  0  0  0  0  0
    0.9403    1.7072   -1.2407 H   0  0  0  0  0  0  0  0  0  0  0  0
    0.4393    0.5070    1.5018 H   0  0  0  0  0  0  0  0  0  0  0  0
    0.3168   -1.4479   -0.0695 H   0  0  0  0  0  0  0  0  0  0  0  0
   -1.1790   -1.0847    0.7731 H   0  0  0  0  0  0  0  0  0  0  0  0
   -1.6479   -1.5943   -1.5782 H   0  0  0  0  0  0  0  0  0  0  0  0
   -0.5323   -0.3472   -2.1242 H   0  0  0  0  0  0  0  0  0  0  0  0
   -3.1280    0.0640   -0.5629 H   0  0  0  0  0  0  0  0  0  0  0  0
   -2.8292    0.5073   -2.2408 H   0  0  0  0  0  0  0  0  0  0  0  0
   -2.6982    2.4563   -0.6678 H   0  0  0  0  0  0  0  0  0  0  0  0
   -1.2207    2.2167   -1.5850 H   0  0  0  0  0  0  0  0  0  0  0  0
   -1.7595    1.4089    1.3104 H   0  0  0  0  0  0  0  0  0  0  0  0
   -0.6869    2.6814    0.7675 H   0  0  0  0  0  0  0  0  0  0  0  0
  1  2  1  0
  1  3  1  0
  1  4  1  0
  4  5  1  0
  5  6  1  0
  6  7  1  0
  7  8  1  0
  8  9  1  0
  9 10  1  0
 10  5  1  0
  1 11  1  1
  2 12  1  0
  2 13  1  0
  2 14  1  0
  3 15  1  0
  3 16  1  0
  4 17  1  0
  4 18  1  0
  5 19  1  0
  6 20  1  0
  6 21  1  0
  7 22  1  0
  7 23  1  0
  8 24  1  0
  8 25  1  0
  9 26  1  0
  9 27  1  0
 10 28  1  0
 10 29  1  0
M  END
