
     RDKit          3D

 30 30  0  0  0  0  0  0  0  0999 V2000
    1.3540   -1.4653    2.0090 C   0  0  0  0  0  0  0  0  0  0  0  0
   -0.0475   -1.5476    1.3938 C   0  0  0  0  0  0  0  0  0  0  0  0
   -1.0662   -1.1950    2.4910 C   0  0  0  0  0  0  0  0  0  0  0  0
   -0.2157   -0.6557    0.1235 C   0  0  2  0  0  0  0  0  0  0  0  0
   -1.5896   -0.8278   -0.4220 N   0  0  0  0  0  0  0  0  0  0  0  0
    0.8396   -0.9349   -0.9981 C   0  0  0  0  0  0  0  0  0  0  0  0
    1.1728   -2.2571   -0.9992 F   0  0  0  0  0  0  0  0  0  0  0  0
    2.3790    0.0564   -0.8705 S   0  0  0  0  0  0  0  0  0  0  0  0
    1.7512    1.6756   -1.2692 C   0  0  0  0  0  0  0  0  0  0  0  0
    1.2277    1.9606   -2.5365 C   0  0  0  0  0  0  0  0  0  0  0  0
    0.7452    3.2390   -2.8253 C   0  0  0  0  0  0  0  0  0  0  0  0
    0.7976    4.2285   -1.8507 C   0  0  0  0  0  0  0  0  0  0  0  0
    0.3338    5.4534   -2.1288 F   0  0  0  0  0  0  0  0  0  0  0  0
    1.3296    3.9663   -0.5941 C   0  0  0  0  0  0  0  0  0  0  0  0
    1.8129    2.6887   -0.3042 C   0  0  0  0  0  0  0  0  0  0  0  0
    2.1093   -1.8940    1.3450 H   0  0  0  0  0  0  0  0  0  0  0  0
    1.4044   -2.0365    2.9429 H   0  0  0  0  0  0  0  0  0  0  0  0
    1.6280   -0.4299    2.2367 H   0  0  0  0  0  0  0  0  0  0  0  0
   -0.2199   -2.5952    1.1118 H   0  0  0  0  0  0  0  0  0  0  0  0
   -1.0110   -0.1333    2.7542 H   0  0  0  0  0  0  0  0  0  0  0  0
   -2.0908   -1.4213    2.1817 H   0  0  0  0  0  0  0  0  0  0  0  0
   -0.8790   -1.7776    3.4000 H   0  0  0  0  0  0  0  0  0  0  0  0
   -0.1563    0.3972    0.4234 H   0  0  0  0  0  0  0  0  0  0  0  0
   -2.2776   -0.5504    0.2767 H   0  0  0  0  0  0  0  0  0  0  0  0
   -1.7311   -0.1945   -1.2091 H   0  0  0  0  0  0  0  0  0  0  0  0
    0.4091   -0.7312   -1.9837 H   0  0  0  0  0  0  0  0  0  0  0  0
    1.2050    1.2003   -3.3138 H   0  0  0  0  0  0  0  0  0  0  0  0
    0.3391    3.4713   -3.8049 H   0  0  0  0  0  0  0  0  0  0  0  0
    1.3706    4.7569    0.1485 H   0  0  0  0  0  0  0  0  0  0  0  0
    2.2372    2.4921    0.6782 H   0  0  0  0  0  0  0  0  0  0  0  0
  1  2  1  0
  2  3  1  0
  2  4  1  0
  4  5  1  0
  4  6  1  0
  6  7  1  0
  6  8  1  0
  8  9  1  0
  9 10  2  0
 10 11  1  0
 11 12  2  0
 12 13  1  0
 12 14  1  0
 14 15  2  0
 15  9  1  0
  1 16  1  0
  1 17  1  0
  1 18  1  0
  2 19  1  0
  3 20  1  0
  3 21  1  0
  3 22  1  0
  4 23  1  1
  5 24  1  0
  5 25  1  0
  6 26  1  0
 10 27  1  0
 11 28  1  0
 14 29  1  0
 15 30  1  0
M  END
