
     RDKit          3D

 27 26  0  0  0  0  0  0  0  0999 V2000
   -0.6320   -2.3137   -1.3564 C   0  0  0  0  0  0  0  0  0  0  0  0
   -0.2499   -0.9612   -0.7295 C   0  0  0  0  0  0  0  0  0  0  0  0
   -0.2832    0.1167   -1.8202 C   0  0  0  0  0  0  0  0  0  0  0  0
    1.1596   -1.0801   -0.1357 C   0  0  0  0  0  0  0  0  0  0  0  0
   -1.2685   -0.5974    0.3689 C   0  0  0  0  0  0  0  0  0  0  0  0
   -2.3161   -1.2308    0.5158 O   0  0  0  0  0  0  0  0  0  0  0  0
   -0.9450    0.5625    1.2992 C   0  0  0  0  0  0  0  0  0  0  0  0
   -2.2126    1.2290    1.8523 C   0  0  1  0  0  0  0  0  0  0  0  0
   -1.8044    2.0877    3.0116 N   0  0  0  0  0  0  0  0  0  0  0  0
   -2.9605    1.9967    0.7291 C   0  0  0  0  0  0  0  0  0  0  0  0
   -4.0770    2.5854    1.2189 F   0  0  0  0  0  0  0  0  0  0  0  0
   -2.1725    2.9846    0.2352 F   0  0  0  0  0  0  0  0  0  0  0  0
   -3.3230    1.2166   -0.3050 F   0  0  0  0  0  0  0  0  0  0  0  0
   -0.6489   -3.1089   -0.6020 H   0  0  0  0  0  0  0  0  0  0  0  0
   -1.6274   -2.2750   -1.8140 H   0  0  0  0  0  0  0  0  0  0  0  0
    0.0800   -2.6068   -2.1362 H   0  0  0  0  0  0  0  0  0  0  0  0
   -1.2982    0.2486   -2.2124 H   0  0  0  0  0  0  0  0  0  0  0  0
    0.3709   -0.1478   -2.6586 H   0  0  0  0  0  0  0  0  0  0  0  0
    0.0458    1.0902   -1.4421 H   0  0  0  0  0  0  0  0  0  0  0  0
    1.1761   -1.7905    0.6988 H   0  0  0  0  0  0  0  0  0  0  0  0
    1.8786   -1.4252   -0.8873 H   0  0  0  0  0  0  0  0  0  0  0  0
    1.5239   -0.1203    0.2458 H   0  0  0  0  0  0  0  0  0  0  0  0
   -0.3333    1.3052    0.7780 H   0  0  0  0  0  0  0  0  0  0  0  0
   -0.3423    0.1449    2.1153 H   0  0  0  0  0  0  0  0  0  0  0  0
   -2.8917    0.4686    2.2542 H   0  0  0  0  0  0  0  0  0  0  0  0
   -2.6524    2.4854    3.4255 H   0  0  0  0  0  0  0  0  0  0  0  0
   -1.2850    2.8956    2.6589 H   0  0  0  0  0  0  0  0  0  0  0  0
  1  2  1  0
  2  3  1  0
  2  4  1  0
  2  5  1  0
  5  6  2  0
  5  7  1  0
  7  8  1  0
  8  9  1  0
  8 10  1  0
 10 11  1  0
 10 12  1  0
 10 13  1  0
  1 14  1  0
  1 15  1  0
  1 16  1  0
  3 17  1  0
  3 18  1  0
  3 19  1  0
  4 20  1  0
  4 21  1  0
  4 22  1  0
  7 23  1  0
  7 24  1  0
  8 25  1  1
  9 26  1  0
  9 27  1  0
M  END
