
     RDKit          3D

 30 29  0  0  0  0  0  0  0  0999 V2000
    2.8699   -0.9229   -0.2496 C   0  0  0  0  0  0  0  0  0  0  0  0
    1.4896   -1.4950    0.0949 C   0  0  2  0  0  0  0  0  0  0  0  0
    1.1391   -2.5265   -0.9659 C   0  0  0  0  0  0  0  0  0  0  0  0
    0.9535   -3.8290   -0.7142 C   0  0  0  0  0  0  0  0  0  0  0  0
    0.3871   -0.3936    0.2040 C   0  0  1  0  0  0  0  0  0  0  0  0
   -0.8931   -1.0076    0.6132 N   0  0  0  0  0  0  0  0  0  0  0  0
    0.7590    0.7353    1.1983 C   0  0  0  0  0  0  0  0  0  0  0  0
   -0.2383    1.8723    1.2138 C   0  0  0  0  0  0  0  0  0  0  0  0
   -1.0985    2.2079    2.1954 C   0  0  0  0  0  0  0  0  0  0  0  0
   -2.0025    3.4041    2.0493 C   0  0  0  0  0  0  0  0  0  0  0  0
   -1.2675    1.4615    3.4904 C   0  0  0  0  0  0  0  0  0  0  0  0
    2.8265   -0.2784   -1.1347 H   0  0  0  0  0  0  0  0  0  0  0  0
    3.5915   -1.7234   -0.4513 H   0  0  0  0  0  0  0  0  0  0  0  0
    3.2754   -0.3373    0.5814 H   0  0  0  0  0  0  0  0  0  0  0  0
    1.5776   -1.9954    1.0696 H   0  0  0  0  0  0  0  0  0  0  0  0
    1.0397   -2.1692   -1.9892 H   0  0  0  0  0  0  0  0  0  0  0  0
    1.0387   -4.2307    0.2912 H   0  0  0  0  0  0  0  0  0  0  0  0
    0.7070   -4.5219   -1.5124 H   0  0  0  0  0  0  0  0  0  0  0  0
    0.2389    0.0544   -0.7882 H   0  0  0  0  0  0  0  0  0  0  0  0
   -1.1770   -1.6938   -0.0848 H   0  0  0  0  0  0  0  0  0  0  0  0
   -1.6175   -0.2903    0.6334 H   0  0  0  0  0  0  0  0  0  0  0  0
    0.9201    0.3169    2.1969 H   0  0  0  0  0  0  0  0  0  0  0  0
    1.7158    1.1846    0.9082 H   0  0  0  0  0  0  0  0  0  0  0  0
   -0.2182    2.4852    0.3127 H   0  0  0  0  0  0  0  0  0  0  0  0
   -3.0518    3.0945    2.0944 H   0  0  0  0  0  0  0  0  0  0  0  0
   -1.8153    4.1207    2.8557 H   0  0  0  0  0  0  0  0  0  0  0  0
   -1.8509    3.9266    1.0989 H   0  0  0  0  0  0  0  0  0  0  0  0
   -0.6871    0.5380    3.5415 H   0  0  0  0  0  0  0  0  0  0  0  0
   -2.3181    1.1844    3.6290 H   0  0  0  0  0  0  0  0  0  0  0  0
   -0.9649    2.0945    4.3310 H   0  0  0  0  0  0  0  0  0  0  0  0
  1  2  1  0
  2  3  1  0
  3  4  2  3
  2  5  1  0
  5  6  1  0
  5  7  1  0
  7  8  1  0
  8  9  2  3
  9 10  1  0
  9 11  1  0
  1 12  1  0
  1 13  1  0
  1 14  1  0
  2 15  1  1
  3 16  1  0
  4 17  1  0
  4 18  1  0
  5 19  1  6
  6 20  1  0
  6 21  1  0
  7 22  1  0
  7 23  1  0
  8 24  1  0
 10 25  1  0
 10 26  1  0
 10 27  1  0
 11 28  1  0
 11 29  1  0
 11 30  1  0
M  END
