
     RDKit          3D

 29 28  0  0  0  0  0  0  0  0999 V2000
   -0.2920    1.3944   -1.1538 C   0  0  0  0  0  0  0  0  0  0  0  0
    0.8309    0.4134   -1.4531 C   0  0  0  0  0  0  0  0  0  0  0  0
    0.7469   -0.8755   -0.6284 C   0  0  0  0  0  0  0  0  0  0  0  0
    1.8281   -1.0387    0.4468 C   0  0  0  0  0  0  0  0  0  0  0  0
    1.7413   -0.2166    1.7515 C   0  0  1  0  0  0  0  0  0  0  0  0
    1.9093    1.2150    1.4826 N   0  0  0  0  0  0  0  0  0  0  0  0
    0.5397   -0.5017    2.7143 C   0  0  2  0  0  0  0  0  0  0  0  0
    0.2830   -2.0005    2.9012 C   0  0  0  0  0  0  0  0  0  0  0  0
   -0.7612    0.1934    2.3745 C   0  0  0  0  0  0  0  0  0  0  0  0
   -1.3676    1.0859    3.1696 C   0  0  0  0  0  0  0  0  0  0  0  0
   -0.2181    2.2626   -1.8166 H   0  0  0  0  0  0  0  0  0  0  0  0
   -1.2706    0.9311   -1.3157 H   0  0  0  0  0  0  0  0  0  0  0  0
   -0.2505    1.7578   -0.1251 H   0  0  0  0  0  0  0  0  0  0  0  0
    1.8022    0.9048   -1.3322 H   0  0  0  0  0  0  0  0  0  0  0  0
    0.7549    0.1473   -2.5152 H   0  0  0  0  0  0  0  0  0  0  0  0
   -0.2528   -1.0332   -0.2175 H   0  0  0  0  0  0  0  0  0  0  0  0
    0.8964   -1.7062   -1.3325 H   0  0  0  0  0  0  0  0  0  0  0  0
    1.8638   -2.1017    0.7184 H   0  0  0  0  0  0  0  0  0  0  0  0
    2.8044   -0.8444   -0.0201 H   0  0  0  0  0  0  0  0  0  0  0  0
    2.6326   -0.5116    2.3250 H   0  0  0  0  0  0  0  0  0  0  0  0
    2.8299    1.3900    1.0850 H   0  0  0  0  0  0  0  0  0  0  0  0
    1.8522    1.7404    2.3533 H   0  0  0  0  0  0  0  0  0  0  0  0
    0.8582   -0.1254    3.6988 H   0  0  0  0  0  0  0  0  0  0  0  0
    1.2067   -2.5226    3.1726 H   0  0  0  0  0  0  0  0  0  0  0  0
   -0.1202   -2.4634    1.9941 H   0  0  0  0  0  0  0  0  0  0  0  0
   -0.4409   -2.1731    3.7060 H   0  0  0  0  0  0  0  0  0  0  0  0
   -1.2356   -0.0533    1.4299 H   0  0  0  0  0  0  0  0  0  0  0  0
   -0.9504    1.3771    4.1278 H   0  0  0  0  0  0  0  0  0  0  0  0
   -2.3009    1.5507    2.8668 H   0  0  0  0  0  0  0  0  0  0  0  0
  1  2  1  0
  2  3  1  0
  3  4  1  0
  4  5  1  0
  5  6  1  0
  5  7  1  0
  7  8  1  0
  7  9  1  0
  9 10  2  3
  1 11  1  0
  1 12  1  0
  1 13  1  0
  2 14  1  0
  2 15  1  0
  3 16  1  0
  3 17  1  0
  4 18  1  0
  4 19  1  0
  5 20  1  1
  6 21  1  0
  6 22  1  0
  7 23  1  1
  8 24  1  0
  8 25  1  0
  8 26  1  0
  9 27  1  0
 10 28  1  0
 10 29  1  0
M  END
