
     RDKit          3D

 29 28  0  0  0  0  0  0  0  0999 V2000
    2.6994    0.0359   -0.2273 C   0  0  0  0  0  0  0  0  0  0  0  0
    1.4775   -0.2215   -1.1453 C   0  0  0  0  0  0  0  0  0  0  0  0
    0.7266    1.1238   -1.2846 C   0  0  0  0  0  0  0  0  0  0  0  0
    2.0393   -0.5711   -2.5479 C   0  0  0  0  0  0  0  0  0  0  0  0
    0.5320   -1.3811   -0.5784 C   0  0  1  0  0  0  0  0  0  0  0  0
   -0.6662   -1.6544   -1.5197 C   0  0  0  0  0  0  0  0  0  0  0  0
    1.3037   -2.6448   -0.5196 N   0  0  0  0  0  0  0  0  0  0  0  0
   -0.0177   -1.0394    0.8538 C   0  0  0  0  0  0  0  0  0  0  0  0
   -0.8670   -2.1024    1.5135 C   0  0  0  0  0  0  0  0  0  0  0  0
   -2.1630   -1.9491    1.8149 C   0  0  0  0  0  0  0  0  0  0  0  0
    3.3541    0.8052   -0.6549 H   0  0  0  0  0  0  0  0  0  0  0  0
    3.3103   -0.8627   -0.0957 H   0  0  0  0  0  0  0  0  0  0  0  0
    2.4010    0.3964    0.7615 H   0  0  0  0  0  0  0  0  0  0  0  0
    0.3675    1.4949   -0.3202 H   0  0  0  0  0  0  0  0  0  0  0  0
    1.3866    1.8984   -1.6940 H   0  0  0  0  0  0  0  0  0  0  0  0
   -0.1284    1.0468   -1.9628 H   0  0  0  0  0  0  0  0  0  0  0  0
    2.5932   -1.5154   -2.5426 H   0  0  0  0  0  0  0  0  0  0  0  0
    2.7322    0.2043   -2.8968 H   0  0  0  0  0  0  0  0  0  0  0  0
    1.2477   -0.6425   -3.3000 H   0  0  0  0  0  0  0  0  0  0  0  0
   -0.3476   -1.9085   -2.5354 H   0  0  0  0  0  0  0  0  0  0  0  0
   -1.2735   -2.4990   -1.1723 H   0  0  0  0  0  0  0  0  0  0  0  0
   -1.3350   -0.7900   -1.5797 H   0  0  0  0  0  0  0  0  0  0  0  0
    1.9750   -2.6032    0.2455 H   0  0  0  0  0  0  0  0  0  0  0  0
    0.6772   -3.4186   -0.2996 H   0  0  0  0  0  0  0  0  0  0  0  0
   -0.5954   -0.1087    0.8082 H   0  0  0  0  0  0  0  0  0  0  0  0
    0.8158   -0.8499    1.5399 H   0  0  0  0  0  0  0  0  0  0  0  0
   -0.3751   -3.0350    1.7801 H   0  0  0  0  0  0  0  0  0  0  0  0
   -2.7002   -1.0344    1.5838 H   0  0  0  0  0  0  0  0  0  0  0  0
   -2.7179   -2.7450    2.3025 H   0  0  0  0  0  0  0  0  0  0  0  0
  1  2  1  0
  2  3  1  0
  2  4  1  0
  2  5  1  0
  5  6  1  0
  5  7  1  1
  5  8  1  0
  8  9  1  0
  9 10  2  3
  1 11  1  0
  1 12  1  0
  1 13  1  0
  3 14  1  0
  3 15  1  0
  3 16  1  0
  4 17  1  0
  4 18  1  0
  4 19  1  0
  6 20  1  0
  6 21  1  0
  6 22  1  0
  7 23  1  0
  7 24  1  0
  8 25  1  0
  8 26  1  0
  9 27  1  0
 10 28  1  0
 10 29  1  0
M  END
