
     RDKit          3D

 24 23  0  0  0  0  0  0  0  0999 V2000
   -2.5633   -0.6307    2.0568 C   0  0  0  0  0  0  0  0  0  0  0  0
   -1.4440   -0.0931    2.9314 C   0  0  0  0  0  0  0  0  0  0  0  0
   -0.0356   -0.4668    2.4596 C   0  0  0  0  0  0  0  0  0  0  0  0
    0.3574    0.1186    1.0978 C   0  0  0  0  0  0  0  0  0  0  0  0
    0.1643   -0.8757   -0.0575 C   0  0  0  0  0  0  0  0  0  0  0  0
    0.4732   -0.2556   -1.4319 C   0  0  2  0  0  0  0  0  0  0  0  0
    0.1141   -1.1939   -2.4943 N   0  0  0  0  0  0  0  0  0  0  0  0
    1.8996    0.0786   -1.5729 C   0  0  0  0  0  0  0  0  0  0  0  0
    3.0634    0.3518   -1.6935 C   0  0  0  0  0  0  0  0  0  0  0  0
   -2.5685   -0.1476    1.0755 H   0  0  0  0  0  0  0  0  0  0  0  0
   -2.4709   -1.7122    1.9171 H   0  0  0  0  0  0  0  0  0  0  0  0
   -3.5330   -0.4318    2.5245 H   0  0  0  0  0  0  0  0  0  0  0  0
   -1.5797   -0.4834    3.9474 H   0  0  0  0  0  0  0  0  0  0  0  0
   -1.5329    0.9975    3.0017 H   0  0  0  0  0  0  0  0  0  0  0  0
    0.6654   -0.0754    3.2082 H   0  0  0  0  0  0  0  0  0  0  0  0
    0.0874   -1.5563    2.4653 H   0  0  0  0  0  0  0  0  0  0  0  0
   -0.1966    1.0445    0.9038 H   0  0  0  0  0  0  0  0  0  0  0  0
    1.4185    0.3923    1.1451 H   0  0  0  0  0  0  0  0  0  0  0  0
    0.8029   -1.7529    0.1153 H   0  0  0  0  0  0  0  0  0  0  0  0
   -0.8697   -1.2379   -0.0537 H   0  0  0  0  0  0  0  0  0  0  0  0
   -0.1276    0.6515   -1.5639 H   0  0  0  0  0  0  0  0  0  0  0  0
   -0.8527   -1.4873   -2.3747 H   0  0  0  0  0  0  0  0  0  0  0  0
    0.6815   -2.0347   -2.3977 H   0  0  0  0  0  0  0  0  0  0  0  0
    4.0943    0.5942   -1.8096 H   0  0  0  0  0  0  0  0  0  0  0  0
  1  2  1  0
  2  3  1  0
  3  4  1  0
  4  5  1  0
  5  6  1  0
  6  7  1  0
  6  8  1  0
  8  9  3  0
  1 10  1  0
  1 11  1  0
  1 12  1  0
  2 13  1  0
  2 14  1  0
  3 15  1  0
  3 16  1  0
  4 17  1  0
  4 18  1  0
  5 19  1  0
  5 20  1  0
  6 21  1  6
  7 22  1  0
  7 23  1  0
  9 24  1  0
M  END
