
     RDKit          3D

 34 34  0  0  0  0  0  0  0  0999 V2000
   -1.7183    4.4679   -0.2211 C   0  0  0  0  0  0  0  0  0  0  0  0
   -1.9772    4.1807    1.2557 C   0  0  0  0  0  0  0  0  0  0  0  0
   -2.0293    5.7641    2.1266 Cl  0  0  0  0  0  0  0  0  0  0  0  0
   -3.5996    3.4300    1.4405 Cl  0  0  0  0  0  0  0  0  0  0  0  0
   -0.9079    3.3225    1.9306 C   0  0  0  0  0  0  0  0  0  0  0  0
   -0.7788    1.9398    1.3290 C   0  0  0  0  0  0  0  0  0  0  0  0
   -0.3262    1.7931    0.1946 O   0  0  0  0  0  0  0  0  0  0  0  0
   -1.2170    0.7685    2.1974 C   0  0  0  0  0  0  0  0  0  0  0  0
   -1.0350   -0.5949    1.5111 C   0  0  2  0  0  0  0  0  0  0  0  0
   -1.7892   -1.6154    2.2650 N   0  0  0  0  0  0  0  0  0  0  0  0
    0.4596   -0.9923    1.4356 C   0  0  0  0  0  0  0  0  0  0  0  0
    0.7485   -2.0213    0.3671 C   0  0  0  0  0  0  0  0  0  0  0  0
    1.0481   -1.6132   -0.9404 C   0  0  0  0  0  0  0  0  0  0  0  0
    1.3099   -2.5579   -1.9337 C   0  0  0  0  0  0  0  0  0  0  0  0
    1.2689   -3.9178   -1.6315 C   0  0  0  0  0  0  0  0  0  0  0  0
    0.9619   -4.3339   -0.3372 C   0  0  0  0  0  0  0  0  0  0  0  0
    0.7003   -3.3903    0.6576 C   0  0  0  0  0  0  0  0  0  0  0  0
   -0.7181    4.8895   -0.3721 H   0  0  0  0  0  0  0  0  0  0  0  0
   -2.4435    5.1853   -0.6240 H   0  0  0  0  0  0  0  0  0  0  0  0
   -1.7951    3.5643   -0.8345 H   0  0  0  0  0  0  0  0  0  0  0  0
    0.0800    3.7955    1.8576 H   0  0  0  0  0  0  0  0  0  0  0  0
   -1.1134    3.2146    3.0035 H   0  0  0  0  0  0  0  0  0  0  0  0
   -2.2754    0.9262    2.4342 H   0  0  0  0  0  0  0  0  0  0  0  0
   -0.6494    0.8030    3.1349 H   0  0  0  0  0  0  0  0  0  0  0  0
   -1.4579   -0.5496    0.4998 H   0  0  0  0  0  0  0  0  0  0  0  0
   -1.5013   -1.6290    3.2415 H   0  0  0  0  0  0  0  0  0  0  0  0
   -2.7845   -1.3972    2.2494 H   0  0  0  0  0  0  0  0  0  0  0  0
    0.8102   -1.3641    2.4083 H   0  0  0  0  0  0  0  0  0  0  0  0
    1.0862   -0.1146    1.2341 H   0  0  0  0  0  0  0  0  0  0  0  0
    1.0740   -0.5543   -1.1911 H   0  0  0  0  0  0  0  0  0  0  0  0
    1.5412   -2.2315   -2.9439 H   0  0  0  0  0  0  0  0  0  0  0  0
    1.4695   -4.6531   -2.4058 H   0  0  0  0  0  0  0  0  0  0  0  0
    0.9192   -5.3939   -0.1024 H   0  0  0  0  0  0  0  0  0  0  0  0
    0.4463   -3.7274    1.6597 H   0  0  0  0  0  0  0  0  0  0  0  0
  1  2  1  0
  2  3  1  0
  2  4  1  0
  2  5  1  0
  5  6  1  0
  6  7  2  0
  6  8  1  0
  8  9  1  0
  9 10  1  0
  9 11  1  0
 11 12  1  0
 12 13  2  0
 13 14  1  0
 14 15  2  0
 15 16  1  0
 16 17  2  0
 17 12  1  0
  1 18  1  0
  1 19  1  0
  1 20  1  0
  5 21  1  0
  5 22  1  0
  8 23  1  0
  8 24  1  0
  9 25  1  6
 10 26  1  0
 10 27  1  0
 11 28  1  0
 11 29  1  0
 13 30  1  0
 14 31  1  0
 15 32  1  0
 16 33  1  0
 17 34  1  0
M  END
