
     RDKit          3D

 59 58  0  0  0  0  0  0  0  0999 V2000
   -3.0990   -0.8584    2.9566 C   0  0  0  0  0  0  0  0  0  0  0  0
   -2.8000    0.2880    3.9089 C   0  0  0  0  0  0  0  0  0  0  0  0
   -1.3267    0.3807    4.3126 C   0  0  0  0  0  0  0  0  0  0  0  0
   -0.3322    0.5944    3.1669 C   0  0  0  0  0  0  0  0  0  0  0  0
   -0.6026    1.8622    2.3545 C   0  0  0  0  0  0  0  0  0  0  0  0
    0.5134    2.1228    1.3386 C   0  0  0  0  0  0  0  0  0  0  0  0
    0.2057    3.3601    0.4900 C   0  0  0  0  0  0  0  0  0  0  0  0
    1.3158    3.7062   -0.5080 C   0  0  0  0  0  0  0  0  0  0  0  0
    1.1055    3.1548   -1.9227 C   0  0  0  0  0  0  0  0  0  0  0  0
    1.1812    1.6315   -2.0193 C   0  0  0  0  0  0  0  0  0  0  0  0
    1.1321    1.1651   -3.4774 C   0  0  0  0  0  0  0  0  0  0  0  0
    1.1684   -0.3601   -3.6195 C   0  0  0  0  0  0  0  0  0  0  0  0
    2.5312   -0.9604   -3.2634 C   0  0  0  0  0  0  0  0  0  0  0  0
    2.6179   -2.4666   -3.5306 C   0  0  0  0  0  0  0  0  0  0  0  0
    1.6330   -3.3401   -2.7397 C   0  0  0  0  0  0  0  0  0  0  0  0
    1.7027   -3.1973   -1.2059 C   0  0  2  0  0  0  0  0  0  0  0  0
    3.0590   -3.5164   -0.7403 N   0  0  0  0  0  0  0  0  0  0  0  0
    0.6345   -4.1053   -0.5477 C   0  0  0  0  0  0  0  0  0  0  0  0
    0.5527   -3.9602    0.9496 C   0  0  0  0  0  0  0  0  0  0  0  0
   -0.4957   -3.4342    1.5952 C   0  0  0  0  0  0  0  0  0  0  0  0
   -2.7670   -1.8131    3.3762 H   0  0  0  0  0  0  0  0  0  0  0  0
   -4.1767   -0.9255    2.7760 H   0  0  0  0  0  0  0  0  0  0  0  0
   -2.6097   -0.7143    1.9889 H   0  0  0  0  0  0  0  0  0  0  0  0
   -3.3975    0.1494    4.8182 H   0  0  0  0  0  0  0  0  0  0  0  0
   -3.1340    1.2314    3.4632 H   0  0  0  0  0  0  0  0  0  0  0  0
   -1.2175    1.2017    5.0322 H   0  0  0  0  0  0  0  0  0  0  0  0
   -1.0463   -0.5354    4.8474 H   0  0  0  0  0  0  0  0  0  0  0  0
   -0.3321   -0.2771    2.5024 H   0  0  0  0  0  0  0  0  0  0  0  0
    0.6745    0.6512    3.5997 H   0  0  0  0  0  0  0  0  0  0  0  0
   -1.5561    1.7667    1.8228 H   0  0  0  0  0  0  0  0  0  0  0  0
   -0.6897    2.7220    3.0297 H   0  0  0  0  0  0  0  0  0  0  0  0
    0.6380    1.2405    0.7044 H   0  0  0  0  0  0  0  0  0  0  0  0
    1.4612    2.2704    1.8705 H   0  0  0  0  0  0  0  0  0  0  0  0
   -0.7527    3.2401   -0.0287 H   0  0  0  0  0  0  0  0  0  0  0  0
    0.0864    4.2127    1.1712 H   0  0  0  0  0  0  0  0  0  0  0  0
    1.3516    4.7999   -0.5973 H   0  0  0  0  0  0  0  0  0  0  0  0
    2.2956    3.3990   -0.1235 H   0  0  0  0  0  0  0  0  0  0  0  0
    1.8771    3.5907   -2.5701 H   0  0  0  0  0  0  0  0  0  0  0  0
    0.1405    3.5018   -2.3120 H   0  0  0  0  0  0  0  0  0  0  0  0
    0.3391    1.1837   -1.4815 H   0  0  0  0  0  0  0  0  0  0  0  0
    2.1042    1.2863   -1.5418 H   0  0  0  0  0  0  0  0  0  0  0  0
    1.9602    1.6091   -4.0429 H   0  0  0  0  0  0  0  0  0  0  0  0
    0.2045    1.5316   -3.9347 H   0  0  0  0  0  0  0  0  0  0  0  0
    0.3809   -0.7986   -2.9966 H   0  0  0  0  0  0  0  0  0  0  0  0
    0.9307   -0.6143   -4.6598 H   0  0  0  0  0  0  0  0  0  0  0  0
    3.3050   -0.4652   -3.8635 H   0  0  0  0  0  0  0  0  0  0  0  0
    2.7796   -0.7578   -2.2170 H   0  0  0  0  0  0  0  0  0  0  0  0
    2.4538   -2.6468   -4.6006 H   0  0  0  0  0  0  0  0  0  0  0  0
    3.6431   -2.7975   -3.3247 H   0  0  0  0  0  0  0  0  0  0  0  0
    1.8148   -4.3877   -3.0161 H   0  0  0  0  0  0  0  0  0  0  0  0
    0.6126   -3.1177   -3.0757 H   0  0  0  0  0  0  0  0  0  0  0  0
    1.4847   -2.1582   -0.9326 H   0  0  0  0  0  0  0  0  0  0  0  0
    3.2436   -4.5092   -0.8765 H   0  0  0  0  0  0  0  0  0  0  0  0
    3.1175   -3.3507    0.2635 H   0  0  0  0  0  0  0  0  0  0  0  0
   -0.3441   -3.8832   -0.9930 H   0  0  0  0  0  0  0  0  0  0  0  0
    0.8428   -5.1581   -0.7786 H   0  0  0  0  0  0  0  0  0  0  0  0
    1.3941   -4.3293    1.5315 H   0  0  0  0  0  0  0  0  0  0  0  0
   -0.5033   -3.3638    2.6788 H   0  0  0  0  0  0  0  0  0  0  0  0
   -1.3658   -3.0601    1.0645 H   0  0  0  0  0  0  0  0  0  0  0  0
  1  2  1  0
  2  3  1  0
  3  4  1  0
  4  5  1  0
  5  6  1  0
  6  7  1  0
  7  8  1  0
  8  9  1  0
  9 10  1  0
 10 11  1  0
 11 12  1  0
 12 13  1  0
 13 14  1  0
 14 15  1  0
 15 16  1  0
 16 17  1  0
 16 18  1  0
 18 19  1  0
 19 20  2  3
  1 21  1  0
  1 22  1  0
  1 23  1  0
  2 24  1  0
  2 25  1  0
  3 26  1  0
  3 27  1  0
  4 28  1  0
  4 29  1  0
  5 30  1  0
  5 31  1  0
  6 32  1  0
  6 33  1  0
  7 34  1  0
  7 35  1  0
  8 36  1  0
  8 37  1  0
  9 38  1  0
  9 39  1  0
 10 40  1  0
 10 41  1  0
 11 42  1  0
 11 43  1  0
 12 44  1  0
 12 45  1  0
 13 46  1  0
 13 47  1  0
 14 48  1  0
 14 49  1  0
 15 50  1  0
 15 51  1  0
 16 52  1  6
 17 53  1  0
 17 54  1  0
 18 55  1  0
 18 56  1  0
 19 57  1  0
 20 58  1  0
 20 59  1  0
M  END
