
     RDKit          3D

 31 31  0  0  0  0  0  0  0  0999 V2000
    2.6690    1.1732   -0.7874 C   0  0  0  0  0  0  0  0  0  0  0  0
    1.9297    1.8102    0.3840 C   0  0  0  0  0  0  0  0  0  0  0  0
    1.4288    0.8152    1.4595 C   0  0  0  0  0  0  0  0  0  0  0  0
    0.6564    1.5999    2.5359 C   0  0  0  0  0  0  0  0  0  0  0  0
    0.5592   -0.3337    0.8927 C   0  0  0  0  0  0  0  0  0  0  0  0
   -0.6978    0.1114    0.1375 C   0  0  0  0  0  0  0  0  0  0  0  0
   -1.4637   -1.0733   -0.3991 C   0  0  0  0  0  0  0  0  0  0  0  0
   -2.4529   -1.6913    0.3774 C   0  0  0  0  0  0  0  0  0  0  0  0
   -3.1475   -2.7980   -0.1132 C   0  0  0  0  0  0  0  0  0  0  0  0
   -2.8569   -3.2993   -1.3806 C   0  0  0  0  0  0  0  0  0  0  0  0
   -1.8703   -2.6959   -2.1581 C   0  0  0  0  0  0  0  0  0  0  0  0
   -1.1745   -1.5891   -1.6696 C   0  0  0  0  0  0  0  0  0  0  0  0
    2.5785    0.2179    2.1081 N   0  0  0  0  0  4  0  0  0  0  0  0
    3.5044   -0.2646    2.6423 C   0  0  0  0  0  3  0  0  0  0  0  0
    3.5256    0.5831   -0.4497 H   0  0  0  0  0  0  0  0  0  0  0  0
    2.0119    0.5264   -1.3756 H   0  0  0  0  0  0  0  0  0  0  0  0
    3.0452    1.9536   -1.4572 H   0  0  0  0  0  0  0  0  0  0  0  0
    2.6082    2.5341    0.8548 H   0  0  0  0  0  0  0  0  0  0  0  0
    1.0891    2.3932   -0.0115 H   0  0  0  0  0  0  0  0  0  0  0  0
    1.3089    2.3286    3.0312 H   0  0  0  0  0  0  0  0  0  0  0  0
    0.2754    0.9289    3.3140 H   0  0  0  0  0  0  0  0  0  0  0  0
   -0.1906    2.1493    2.1134 H   0  0  0  0  0  0  0  0  0  0  0  0
    0.2637   -0.9935    1.7212 H   0  0  0  0  0  0  0  0  0  0  0  0
    1.1747   -0.9668    0.2393 H   0  0  0  0  0  0  0  0  0  0  0  0
   -0.4403    0.7716   -0.6984 H   0  0  0  0  0  0  0  0  0  0  0  0
   -1.3586    0.6925    0.7909 H   0  0  0  0  0  0  0  0  0  0  0  0
   -2.6884   -1.3157    1.3705 H   0  0  0  0  0  0  0  0  0  0  0  0
   -3.9143   -3.2710    0.4948 H   0  0  0  0  0  0  0  0  0  0  0  0
   -3.3974   -4.1619   -1.7612 H   0  0  0  0  0  0  0  0  0  0  0  0
   -1.6409   -3.0892   -3.1450 H   0  0  0  0  0  0  0  0  0  0  0  0
   -0.4039   -1.1330   -2.2868 H   0  0  0  0  0  0  0  0  0  0  0  0
  1  2  1  0
  2  3  1  0
  3  4  1  0
  3  5  1  0
  5  6  1  0
  6  7  1  0
  7  8  2  0
  8  9  1  0
  9 10  2  0
 10 11  1  0
 11 12  2  0
  3 13  1  0
 13 14  3  0
 12  7  1  0
  1 15  1  0
  1 16  1  0
  1 17  1  0
  2 18  1  0
  2 19  1  0
  4 20  1  0
  4 21  1  0
  4 22  1  0
  5 23  1  0
  5 24  1  0
  6 25  1  0
  6 26  1  0
  8 27  1  0
  9 28  1  0
 10 29  1  0
 11 30  1  0
 12 31  1  0
M  CHG  2  13   1  14  -1
M  END
