
     RDKit          3D

 26 26  0  0  0  0  0  0  0  0999 V2000
   -1.2906    2.2415    1.7577 C   0  0  0  0  0  0  0  0  0  0  0  0
   -0.8813    2.8592    0.4214 C   0  0  1  0  0  0  0  0  0  0  0  0
    0.3715    3.6068    0.5823 N   0  0  0  0  0  0  0  0  0  0  0  0
   -0.8180    1.8254   -0.7278 C   0  0  0  0  0  0  0  0  0  0  0  0
    0.0069    0.5827   -0.4804 C   0  0  0  0  0  0  0  0  0  0  0  0
   -0.6182   -0.6561   -0.2842 C   0  0  0  0  0  0  0  0  0  0  0  0
    0.1390   -1.8093   -0.0608 C   0  0  0  0  0  0  0  0  0  0  0  0
    1.5361   -1.7483   -0.0406 C   0  0  0  0  0  0  0  0  0  0  0  0
    2.3482   -2.9781    0.2353 C   0  0  0  0  0  0  0  0  0  0  0  0
    2.1622   -0.5110   -0.2225 C   0  0  0  0  0  0  0  0  0  0  0  0
    1.4048    0.6416   -0.4467 C   0  0  0  0  0  0  0  0  0  0  0  0
   -1.4545    3.0199    2.5116 H   0  0  0  0  0  0  0  0  0  0  0  0
   -0.5260    1.5609    2.1475 H   0  0  0  0  0  0  0  0  0  0  0  0
   -2.2259    1.6811    1.6547 H   0  0  0  0  0  0  0  0  0  0  0  0
   -1.6505    3.5926    0.1470 H   0  0  0  0  0  0  0  0  0  0  0  0
    0.5780    4.1176   -0.2745 H   0  0  0  0  0  0  0  0  0  0  0  0
    0.2642    4.3029    1.3187 H   0  0  0  0  0  0  0  0  0  0  0  0
   -0.4477    2.3096   -1.6419 H   0  0  0  0  0  0  0  0  0  0  0  0
   -1.8469    1.5232   -0.9671 H   0  0  0  0  0  0  0  0  0  0  0  0
   -1.7027   -0.7338   -0.2986 H   0  0  0  0  0  0  0  0  0  0  0  0
   -0.3710   -2.7565    0.0977 H   0  0  0  0  0  0  0  0  0  0  0  0
    2.5062   -3.0884    1.3125 H   0  0  0  0  0  0  0  0  0  0  0  0
    1.8423   -3.8731   -0.1420 H   0  0  0  0  0  0  0  0  0  0  0  0
    3.3224   -2.9227   -0.2618 H   0  0  0  0  0  0  0  0  0  0  0  0
    3.2463   -0.4325   -0.1885 H   0  0  0  0  0  0  0  0  0  0  0  0
    1.9155    1.5921   -0.5836 H   0  0  0  0  0  0  0  0  0  0  0  0
  1  2  1  0
  2  3  1  0
  2  4  1  0
  4  5  1  0
  5  6  2  0
  6  7  1  0
  7  8  2  0
  8  9  1  0
  8 10  1  0
 10 11  2  0
 11  5  1  0
  1 12  1  0
  1 13  1  0
  1 14  1  0
  2 15  1  6
  3 16  1  0
  3 17  1  0
  4 18  1  0
  4 19  1  0
  6 20  1  0
  7 21  1  0
  9 22  1  0
  9 23  1  0
  9 24  1  0
 10 25  1  0
 11 26  1  0
M  END
