
     RDKit          3D

 36 35  0  0  0  0  0  0  0  0999 V2000
   -0.6122   -4.5745    0.2916 C   0  0  0  0  0  0  0  0  0  0  0  0
   -1.1048   -3.2402    0.8394 C   0  0  0  0  0  0  0  0  0  0  0  0
   -0.2319   -2.0448    0.3675 C   0  0  0  0  0  0  0  0  0  0  0  0
   -0.9233   -1.2827   -0.7959 C   0  0  0  0  0  0  0  0  0  0  0  0
   -1.1794   -2.1263   -2.0370 C   0  0  0  0  0  0  0  0  0  0  0  0
    0.0728   -1.0729    1.5480 C   0  0  1  0  0  0  0  0  0  0  0  0
    0.7502   -1.7725    2.6435 N   0  0  0  0  0  0  0  0  0  0  0  0
    0.9497    0.0423    1.1383 C   0  0  0  0  0  0  0  0  0  0  0  0
    1.6706    0.9473    0.8138 C   0  0  0  0  0  0  0  0  0  0  0  0
    2.8006    2.3683    0.2852 Si  0  0  0  0  0  4  0  0  0  0  0  0
    4.5817    1.9374    0.6843 C   0  0  0  0  0  0  0  0  0  0  0  0
    2.3190    3.9314    1.2024 C   0  0  0  0  0  0  0  0  0  0  0  0
    2.6288    2.6527   -1.5607 C   0  0  0  0  0  0  0  0  0  0  0  0
   -0.6105   -4.5927   -0.8010 H   0  0  0  0  0  0  0  0  0  0  0  0
    0.4049   -4.7841    0.6386 H   0  0  0  0  0  0  0  0  0  0  0  0
   -1.2596   -5.3856    0.6401 H   0  0  0  0  0  0  0  0  0  0  0  0
   -2.1517   -3.0927    0.5486 H   0  0  0  0  0  0  0  0  0  0  0  0
   -1.1149   -3.3231    1.9317 H   0  0  0  0  0  0  0  0  0  0  0  0
    0.7271   -2.4269   -0.0119 H   0  0  0  0  0  0  0  0  0  0  0  0
   -1.8739   -0.8590   -0.4489 H   0  0  0  0  0  0  0  0  0  0  0  0
   -0.3005   -0.4367   -1.1080 H   0  0  0  0  0  0  0  0  0  0  0  0
   -1.9294   -2.9003   -1.8522 H   0  0  0  0  0  0  0  0  0  0  0  0
   -1.5573   -1.4936   -2.8469 H   0  0  0  0  0  0  0  0  0  0  0  0
   -0.2580   -2.6035   -2.3849 H   0  0  0  0  0  0  0  0  0  0  0  0
   -0.8717   -0.6685    1.9314 H   0  0  0  0  0  0  0  0  0  0  0  0
    1.6490   -2.1104    2.3020 H   0  0  0  0  0  0  0  0  0  0  0  0
    0.9694   -1.0919    3.3698 H   0  0  0  0  0  0  0  0  0  0  0  0
    5.2514    2.7489    0.3842 H   0  0  0  0  0  0  0  0  0  0  0  0
    4.7085    1.7693    1.7579 H   0  0  0  0  0  0  0  0  0  0  0  0
    4.8881    1.0291    0.1569 H   0  0  0  0  0  0  0  0  0  0  0  0
    2.4141    3.7914    2.2833 H   0  0  0  0  0  0  0  0  0  0  0  0
    2.9632    4.7654    0.9081 H   0  0  0  0  0  0  0  0  0  0  0  0
    1.2830    4.2061    0.9827 H   0  0  0  0  0  0  0  0  0  0  0  0
    3.2761    3.4723   -1.8867 H   0  0  0  0  0  0  0  0  0  0  0  0
    1.5969    2.9090   -1.8188 H   0  0  0  0  0  0  0  0  0  0  0  0
    2.9080    1.7540   -2.1187 H   0  0  0  0  0  0  0  0  0  0  0  0
  1  2  1  0
  2  3  1  0
  3  4  1  0
  4  5  1  0
  3  6  1  0
  6  7  1  0
  6  8  1  0
  8  9  3  0
  9 10  1  0
 10 11  1  0
 10 12  1  0
 10 13  1  0
  1 14  1  0
  1 15  1  0
  1 16  1  0
  2 17  1  0
  2 18  1  0
  3 19  1  0
  4 20  1  0
  4 21  1  0
  5 22  1  0
  5 23  1  0
  5 24  1  0
  6 25  1  1
  7 26  1  0
  7 27  1  0
 11 28  1  0
 11 29  1  0
 11 30  1  0
 12 31  1  0
 12 32  1  0
 12 33  1  0
 13 34  1  0
 13 35  1  0
 13 36  1  0
M  END
