
     RDKit          3D

 33 33  0  0  0  0  0  0  0  0999 V2000
   -1.5761   -0.7595    1.5954 C   0  0  0  0  0  0  0  0  0  0  0  0
   -0.3224   -1.5674    1.2474 C   0  0  2  0  0  0  0  0  0  0  0  0
    0.1242   -2.2508    2.4636 N   0  0  0  0  0  0  0  0  0  0  0  0
    0.7730   -0.7019    0.6385 C   0  0  0  0  0  0  0  0  0  0  0  0
    1.8661   -0.2397    1.2818 C   0  0  0  0  0  0  0  0  0  0  0  0
    0.5414   -0.2959   -1.2526 Si  0  0  0  0  0  4  0  0  0  0  0  0
    2.2253   -0.1739   -2.0851 C   0  0  0  0  0  0  0  0  0  0  0  0
   -0.4609   -1.6464   -2.0913 C   0  0  0  0  0  0  0  0  0  0  0  0
   -0.3566    1.3860   -1.4352 C   0  0  0  0  0  0  0  0  0  0  0  0
   -0.9825    1.7255   -2.6485 C   0  0  0  0  0  0  0  0  0  0  0  0
   -1.6371    2.9511   -2.7937 C   0  0  0  0  0  0  0  0  0  0  0  0
   -1.6745    3.8544   -1.7347 C   0  0  0  0  0  0  0  0  0  0  0  0
   -1.0560    3.5351   -0.5287 C   0  0  0  0  0  0  0  0  0  0  0  0
   -0.3994    2.3112   -0.3779 C   0  0  0  0  0  0  0  0  0  0  0  0
   -2.0378   -0.3295    0.7007 H   0  0  0  0  0  0  0  0  0  0  0  0
   -1.3500    0.0623    2.2850 H   0  0  0  0  0  0  0  0  0  0  0  0
   -2.3324   -1.3963    2.0692 H   0  0  0  0  0  0  0  0  0  0  0  0
   -0.6001   -2.3647    0.5501 H   0  0  0  0  0  0  0  0  0  0  0  0
    0.2871   -1.5642    3.1962 H   0  0  0  0  0  0  0  0  0  0  0  0
    1.0156   -2.7056    2.2768 H   0  0  0  0  0  0  0  0  0  0  0  0
    2.0454   -0.4383    2.3335 H   0  0  0  0  0  0  0  0  0  0  0  0
    2.6203    0.3705    0.7918 H   0  0  0  0  0  0  0  0  0  0  0  0
    2.8048    0.6609   -1.6802 H   0  0  0  0  0  0  0  0  0  0  0  0
    2.7956   -1.0956   -1.9366 H   0  0  0  0  0  0  0  0  0  0  0  0
    2.1077   -0.0148   -3.1613 H   0  0  0  0  0  0  0  0  0  0  0  0
    0.0013   -2.6251   -1.9311 H   0  0  0  0  0  0  0  0  0  0  0  0
   -1.4822   -1.6783   -1.7002 H   0  0  0  0  0  0  0  0  0  0  0  0
   -0.5160   -1.4734   -3.1702 H   0  0  0  0  0  0  0  0  0  0  0  0
   -0.9705    1.0451   -3.4980 H   0  0  0  0  0  0  0  0  0  0  0  0
   -2.1181    3.2005   -3.7360 H   0  0  0  0  0  0  0  0  0  0  0  0
   -2.1845    4.8070   -1.8491 H   0  0  0  0  0  0  0  0  0  0  0  0
   -1.0835    4.2396    0.2985 H   0  0  0  0  0  0  0  0  0  0  0  0
    0.0732    2.0964    0.5785 H   0  0  0  0  0  0  0  0  0  0  0  0
  1  2  1  0
  2  3  1  0
  2  4  1  0
  4  5  2  3
  4  6  1  0
  6  7  1  0
  6  8  1  0
  6  9  1  0
  9 10  2  0
 10 11  1  0
 11 12  2  0
 12 13  1  0
 13 14  2  0
 14  9  1  0
  1 15  1  0
  1 16  1  0
  1 17  1  0
  2 18  1  6
  3 19  1  0
  3 20  1  0
  5 21  1  0
  5 22  1  0
  7 23  1  0
  7 24  1  0
  7 25  1  0
  8 26  1  0
  8 27  1  0
  8 28  1  0
 10 29  1  0
 11 30  1  0
 12 31  1  0
 13 32  1  0
 14 33  1  0
M  END
