
     RDKit          3D

 37 38  0  0  0  0  0  0  0  0999 V2000
    5.1095   -2.9026   -2.4321 C   0  0  0  0  0  0  0  0  0  0  0  0
    3.8909   -2.0294   -2.3813 C   0  0  0  0  0  0  0  0  0  0  0  0
    3.9782   -0.7180   -1.9003 C   0  0  0  0  0  0  0  0  0  0  0  0
    2.8380    0.0865   -1.8268 C   0  0  0  0  0  0  0  0  0  0  0  0
    1.5940   -0.4157   -2.2146 C   0  0  0  0  0  0  0  0  0  0  0  0
    0.1543    0.6287   -2.1114 S   0  0  0  0  0  0  0  0  0  0  0  0
   -0.7536   -0.2133   -0.7573 C   0  0  0  0  0  0  0  0  0  0  0  0
   -0.0889   -0.0853    0.6343 C   0  0  1  0  0  0  0  0  0  0  0  0
   -0.0352    1.3129    1.0991 N   0  0  0  0  0  0  0  0  0  0  0  0
   -0.7636   -1.0184    1.6741 C   0  0  0  0  0  0  0  0  0  0  0  0
   -2.2184   -0.7373    1.9746 C   0  0  0  0  0  0  0  0  0  0  0  0
   -2.5771    0.1830    2.9695 C   0  0  0  0  0  0  0  0  0  0  0  0
   -3.9205    0.4497    3.2384 C   0  0  0  0  0  0  0  0  0  0  0  0
   -4.9193   -0.2030    2.5194 C   0  0  0  0  0  0  0  0  0  0  0  0
   -4.5759   -1.1259    1.5340 C   0  0  0  0  0  0  0  0  0  0  0  0
   -3.2329   -1.3940    1.2639 C   0  0  0  0  0  0  0  0  0  0  0  0
    1.5021   -1.7252   -2.6923 C   0  0  0  0  0  0  0  0  0  0  0  0
    2.6422   -2.5303   -2.7672 C   0  0  0  0  0  0  0  0  0  0  0  0
    5.2248   -3.4392   -1.4854 H   0  0  0  0  0  0  0  0  0  0  0  0
    6.0101   -2.3064   -2.6134 H   0  0  0  0  0  0  0  0  0  0  0  0
    5.0341   -3.6317   -3.2457 H   0  0  0  0  0  0  0  0  0  0  0  0
    4.9351   -0.3101   -1.5825 H   0  0  0  0  0  0  0  0  0  0  0  0
    2.9260    1.1051   -1.4551 H   0  0  0  0  0  0  0  0  0  0  0  0
   -1.7552    0.2304   -0.7393 H   0  0  0  0  0  0  0  0  0  0  0  0
   -0.8777   -1.2680   -1.0258 H   0  0  0  0  0  0  0  0  0  0  0  0
    0.9495   -0.4292    0.5578 H   0  0  0  0  0  0  0  0  0  0  0  0
    0.3099    1.3467    2.0560 H   0  0  0  0  0  0  0  0  0  0  0  0
   -0.9807    1.6971    1.1191 H   0  0  0  0  0  0  0  0  0  0  0  0
   -0.1992   -0.9771    2.6161 H   0  0  0  0  0  0  0  0  0  0  0  0
   -0.6669   -2.0589    1.3351 H   0  0  0  0  0  0  0  0  0  0  0  0
   -1.8120    0.6975    3.5462 H   0  0  0  0  0  0  0  0  0  0  0  0
   -4.1880    1.1658    4.0111 H   0  0  0  0  0  0  0  0  0  0  0  0
   -5.9652    0.0048    2.7295 H   0  0  0  0  0  0  0  0  0  0  0  0
   -5.3551   -1.6387    0.9759 H   0  0  0  0  0  0  0  0  0  0  0  0
   -2.9863   -2.1215    0.4938 H   0  0  0  0  0  0  0  0  0  0  0  0
    0.5464   -2.1279   -3.0174 H   0  0  0  0  0  0  0  0  0  0  0  0
    2.5495   -3.5490   -3.1369 H   0  0  0  0  0  0  0  0  0  0  0  0
  1  2  1  0
  2  3  2  0
  3  4  1  0
  4  5  2  0
  5  6  1  0
  6  7  1  0
  7  8  1  0
  8  9  1  0
  8 10  1  0
 10 11  1  0
 11 12  2  0
 12 13  1  0
 13 14  2  0
 14 15  1  0
 15 16  2  0
  5 17  1  0
 17 18  2  0
 18  2  1  0
 16 11  1  0
  1 19  1  0
  1 20  1  0
  1 21  1  0
  3 22  1  0
  4 23  1  0
  7 24  1  0
  7 25  1  0
  8 26  1  6
  9 27  1  0
  9 28  1  0
 10 29  1  0
 10 30  1  0
 12 31  1  0
 13 32  1  0
 14 33  1  0
 15 34  1  0
 16 35  1  0
 17 36  1  0
 18 37  1  0
M  END
