
     RDKit          3D

 36 37  0  0  0  0  0  0  0  0999 V2000
    2.0613    1.9876   -2.1712 C   0  0  0  0  0  0  0  0  0  0  0  0
    1.0506    0.8874   -2.5109 C   0  0  2  0  0  0  0  0  0  0  0  0
    0.2495    1.3494   -3.6503 N   0  0  0  0  0  0  0  0  0  0  0  0
    0.2308    0.4390   -1.2565 C   0  0  1  0  0  0  0  0  0  0  0  0
   -0.7316    1.5268   -0.7139 C   0  0  0  0  0  0  0  0  0  0  0  0
   -1.1806    1.2658    0.7097 C   0  0  0  0  0  0  0  0  0  0  0  0
   -2.4032    0.6322    0.9711 C   0  0  0  0  0  0  0  0  0  0  0  0
   -2.8029    0.3788    2.2851 C   0  0  0  0  0  0  0  0  0  0  0  0
   -1.9818    0.7583    3.3440 C   0  0  0  0  0  0  0  0  0  0  0  0
   -2.4742    0.4458    4.9629 Cl  0  0  0  0  0  0  0  0  0  0  0  0
   -0.7636    1.3880    3.1007 C   0  0  0  0  0  0  0  0  0  0  0  0
   -0.3630    1.6398    1.7868 C   0  0  0  0  0  0  0  0  0  0  0  0
   -0.4508   -0.9088   -1.5029 C   0  0  0  0  0  0  0  0  0  0  0  0
    0.1427   -2.0786   -1.0000 C   0  0  0  0  0  0  0  0  0  0  0  0
   -0.4448   -3.3276   -1.2103 C   0  0  0  0  0  0  0  0  0  0  0  0
   -1.6322   -3.4279   -1.9297 C   0  0  0  0  0  0  0  0  0  0  0  0
   -2.2321   -2.2796   -2.4395 C   0  0  0  0  0  0  0  0  0  0  0  0
   -1.6458   -1.0292   -2.2293 C   0  0  0  0  0  0  0  0  0  0  0  0
    1.5764    2.9338   -1.9109 H   0  0  0  0  0  0  0  0  0  0  0  0
    2.7217    2.1820   -3.0245 H   0  0  0  0  0  0  0  0  0  0  0  0
    2.6949    1.6873   -1.3298 H   0  0  0  0  0  0  0  0  0  0  0  0
    1.6344    0.0255   -2.8607 H   0  0  0  0  0  0  0  0  0  0  0  0
   -0.3271    0.5797   -3.9886 H   0  0  0  0  0  0  0  0  0  0  0  0
   -0.3844    2.0937   -3.3690 H   0  0  0  0  0  0  0  0  0  0  0  0
    0.9752    0.2665   -0.4642 H   0  0  0  0  0  0  0  0  0  0  0  0
   -0.2401    2.5069   -0.7183 H   0  0  0  0  0  0  0  0  0  0  0  0
   -1.6118    1.6495   -1.3561 H   0  0  0  0  0  0  0  0  0  0  0  0
   -3.0502    0.3222    0.1536 H   0  0  0  0  0  0  0  0  0  0  0  0
   -3.7510   -0.1173    2.4731 H   0  0  0  0  0  0  0  0  0  0  0  0
   -0.1220    1.6830    3.9265 H   0  0  0  0  0  0  0  0  0  0  0  0
    0.5920    2.1294    1.6087 H   0  0  0  0  0  0  0  0  0  0  0  0
    1.0702   -2.0268   -0.4335 H   0  0  0  0  0  0  0  0  0  0  0  0
    0.0259   -4.2221   -0.8108 H   0  0  0  0  0  0  0  0  0  0  0  0
   -2.0891   -4.4002   -2.0930 H   0  0  0  0  0  0  0  0  0  0  0  0
   -3.1588   -2.3573   -3.0023 H   0  0  0  0  0  0  0  0  0  0  0  0
   -2.1411   -0.1539   -2.6404 H   0  0  0  0  0  0  0  0  0  0  0  0
  1  2  1  0
  2  3  1  0
  2  4  1  0
  4  5  1  0
  5  6  1  0
  6  7  2  0
  7  8  1  0
  8  9  2  0
  9 10  1  0
  9 11  1  0
 11 12  2  0
  4 13  1  0
 13 14  2  0
 14 15  1  0
 15 16  2  0
 16 17  1  0
 17 18  2  0
 12  6  1  0
 18 13  1  0
  1 19  1  0
  1 20  1  0
  1 21  1  0
  2 22  1  6
  3 23  1  0
  3 24  1  0
  4 25  1  1
  5 26  1  0
  5 27  1  0
  7 28  1  0
  8 29  1  0
 11 30  1  0
 12 31  1  0
 14 32  1  0
 15 33  1  0
 16 34  1  0
 17 35  1  0
 18 36  1  0
M  END
