
     RDKit          3D

 45 46  0  0  0  0  0  0  0  0999 V2000
   -3.4450   -2.7235    0.9352 C   0  0  0  0  0  0  0  0  0  0  0  0
   -2.7829   -2.9771   -0.8018 Si  0  0  0  0  0  4  0  0  0  0  0  0
   -4.0776   -2.4344   -2.0451 C   0  0  0  0  0  0  0  0  0  0  0  0
   -2.4007   -4.7960   -1.0581 C   0  0  0  0  0  0  0  0  0  0  0  0
   -1.2088   -1.9600   -1.0322 C   0  0  0  0  0  0  0  0  0  0  0  0
   -0.2167   -1.2976   -1.1802 C   0  0  0  0  0  0  0  0  0  0  0  0
    1.0001   -0.4892   -1.3558 C   0  0  1  0  0  0  0  0  0  0  0  0
    1.3454   -0.4408   -2.7739 N   0  0  0  0  0  0  0  0  0  0  0  0
    0.7390    0.9087   -0.8760 C   0  0  0  0  0  0  0  0  0  0  0  0
    1.2585    1.5325    0.2063 C   0  0  0  0  0  0  0  0  0  0  0  0
    2.1629    0.7958    1.1192 C   0  0  0  0  0  0  0  0  0  0  0  0
    1.6784   -0.2376    1.9335 C   0  0  0  0  0  0  0  0  0  0  0  0
    2.5398   -0.9191    2.7948 C   0  0  0  0  0  0  0  0  0  0  0  0
    3.8877   -0.5682    2.8539 C   0  0  0  0  0  0  0  0  0  0  0  0
    4.3755    0.4655    2.0553 C   0  0  0  0  0  0  0  0  0  0  0  0
    3.5159    1.1477    1.1921 C   0  0  0  0  0  0  0  0  0  0  0  0
    0.8786    2.9523    0.4397 C   0  0  0  0  0  0  0  0  0  0  0  0
    0.9830    3.9148   -0.5763 C   0  0  0  0  0  0  0  0  0  0  0  0
    0.6448    5.2483   -0.3328 C   0  0  0  0  0  0  0  0  0  0  0  0
    0.2058    5.6370    0.9309 C   0  0  0  0  0  0  0  0  0  0  0  0
    0.1077    4.6947    1.9522 C   0  0  0  0  0  0  0  0  0  0  0  0
    0.4456    3.3609    1.7091 C   0  0  0  0  0  0  0  0  0  0  0  0
   -2.7070   -3.0354    1.6806 H   0  0  0  0  0  0  0  0  0  0  0  0
   -4.3558   -3.3095    1.0896 H   0  0  0  0  0  0  0  0  0  0  0  0
   -3.6828   -1.6696    1.1090 H   0  0  0  0  0  0  0  0  0  0  0  0
   -4.3239   -1.3769   -1.9111 H   0  0  0  0  0  0  0  0  0  0  0  0
   -4.9960   -3.0168   -1.9253 H   0  0  0  0  0  0  0  0  0  0  0  0
   -3.7157   -2.5749   -3.0680 H   0  0  0  0  0  0  0  0  0  0  0  0
   -2.0128   -4.9721   -2.0659 H   0  0  0  0  0  0  0  0  0  0  0  0
   -3.3027   -5.4015   -0.9287 H   0  0  0  0  0  0  0  0  0  0  0  0
   -1.6520   -5.1395   -0.3377 H   0  0  0  0  0  0  0  0  0  0  0  0
    1.8297   -0.9665   -0.8258 H   0  0  0  0  0  0  0  0  0  0  0  0
    1.4283   -1.3989   -3.1077 H   0  0  0  0  0  0  0  0  0  0  0  0
    2.2734   -0.0321   -2.8550 H   0  0  0  0  0  0  0  0  0  0  0  0
    0.0388    1.4561   -1.5080 H   0  0  0  0  0  0  0  0  0  0  0  0
    0.6266   -0.5143    1.8999 H   0  0  0  0  0  0  0  0  0  0  0  0
    2.1580   -1.7215    3.4208 H   0  0  0  0  0  0  0  0  0  0  0  0
    4.5579   -1.0975    3.5264 H   0  0  0  0  0  0  0  0  0  0  0  0
    5.4248    0.7442    2.1070 H   0  0  0  0  0  0  0  0  0  0  0  0
    3.9053    1.9561    0.5779 H   0  0  0  0  0  0  0  0  0  0  0  0
    1.3367    3.6337   -1.5656 H   0  0  0  0  0  0  0  0  0  0  0  0
    0.7279    5.9824   -1.1297 H   0  0  0  0  0  0  0  0  0  0  0  0
   -0.0569    6.6744    1.1206 H   0  0  0  0  0  0  0  0  0  0  0  0
   -0.2307    4.9957    2.9401 H   0  0  0  0  0  0  0  0  0  0  0  0
    0.3632    2.6407    2.5198 H   0  0  0  0  0  0  0  0  0  0  0  0
  1  2  1  0
  2  3  1  0
  2  4  1  0
  2  5  1  0
  5  6  3  0
  6  7  1  0
  7  8  1  0
  7  9  1  0
  9 10  2  3
 10 11  1  0
 11 12  2  0
 12 13  1  0
 13 14  2  0
 14 15  1  0
 15 16  2  0
 10 17  1  0
 17 18  2  0
 18 19  1  0
 19 20  2  0
 20 21  1  0
 21 22  2  0
 16 11  1  0
 22 17  1  0
  1 23  1  0
  1 24  1  0
  1 25  1  0
  3 26  1  0
  3 27  1  0
  3 28  1  0
  4 29  1  0
  4 30  1  0
  4 31  1  0
  7 32  1  1
  8 33  1  0
  8 34  1  0
  9 35  1  0
 12 36  1  0
 13 37  1  0
 14 38  1  0
 15 39  1  0
 16 40  1  0
 18 41  1  0
 19 42  1  0
 20 43  1  0
 21 44  1  0
 22 45  1  0
M  END
