
     RDKit          3D

 25 24  0  0  0  0  0  0  0  0999 V2000
   -2.0773    3.2858    1.1941 N   0  0  0  0  0  0  0  0  0  0  0  0
   -2.9127    2.1105    1.4050 C   0  0  0  0  0  0  0  0  0  0  0  0
   -2.2756    1.1201    2.3823 C   0  0  0  0  0  0  0  0  0  0  0  0
   -0.8846    0.6031    1.9900 C   0  0  0  0  0  0  0  0  0  0  0  0
   -0.8708   -0.1425    0.6480 C   0  0  0  0  0  0  0  0  0  0  0  0
    0.4829   -0.7853    0.2751 C   0  0  2  0  0  0  0  0  0  0  0  0
    0.8618   -1.8358    1.2139 N   0  0  0  0  0  0  0  0  0  0  0  0
    1.5531    0.2532    0.0654 C   0  0  0  0  0  0  0  0  0  0  0  0
    2.6052    0.5314    0.8401 C   0  0  0  0  0  0  0  0  0  0  0  0
    2.8425   -0.0924    2.0083 F   0  0  0  0  0  0  0  0  0  0  0  0
   -1.9072    3.7498    2.0859 H   0  0  0  0  0  0  0  0  0  0  0  0
   -2.5787    3.9579    0.6146 H   0  0  0  0  0  0  0  0  0  0  0  0
   -3.8820    2.4296    1.8046 H   0  0  0  0  0  0  0  0  0  0  0  0
   -3.1096    1.6277    0.4427 H   0  0  0  0  0  0  0  0  0  0  0  0
   -2.9526    0.2650    2.5016 H   0  0  0  0  0  0  0  0  0  0  0  0
   -2.2002    1.5916    3.3708 H   0  0  0  0  0  0  0  0  0  0  0  0
   -0.5444   -0.0674    2.7879 H   0  0  0  0  0  0  0  0  0  0  0  0
   -0.1776    1.4398    1.9648 H   0  0  0  0  0  0  0  0  0  0  0  0
   -1.6425   -0.9237    0.6661 H   0  0  0  0  0  0  0  0  0  0  0  0
   -1.1560    0.5484   -0.1553 H   0  0  0  0  0  0  0  0  0  0  0  0
    0.3427   -1.2850   -0.6920 H   0  0  0  0  0  0  0  0  0  0  0  0
    0.0396   -2.3615    1.4999 H   0  0  0  0  0  0  0  0  0  0  0  0
    1.2357   -1.4065    2.0609 H   0  0  0  0  0  0  0  0  0  0  0  0
    1.4369    0.8462   -0.8396 H   0  0  0  0  0  0  0  0  0  0  0  0
    3.3526    1.2877    0.6479 H   0  0  0  0  0  0  0  0  0  0  0  0
  1  2  1  0
  2  3  1  0
  3  4  1  0
  4  5  1  0
  5  6  1  0
  6  7  1  0
  6  8  1  0
  8  9  2  0
  9 10  1  0
  1 11  1  0
  1 12  1  0
  2 13  1  0
  2 14  1  0
  3 15  1  0
  3 16  1  0
  4 17  1  0
  4 18  1  0
  5 19  1  0
  5 20  1  0
  6 21  1  6
  7 22  1  0
  7 23  1  0
  8 24  1  0
  9 25  1  0
M  END
