
     RDKit          3D

 41 43  0  0  0  0  0  0  0  0999 V2000
   -1.6301   -1.3732   -2.1008 N   0  0  0  0  0  0  0  0  0  0  0  0
   -1.2887    0.0100   -1.6378 C   0  0  2  0  0  0  0  0  0  0  0  0
   -0.1470   -0.0867   -0.6137 C   0  0  0  0  0  0  0  0  0  0  0  0
    0.6280    1.5311   -0.2915 S   0  0  0  0  0  4  0  0  0  0  0  0
    1.4224    1.9173   -1.5015 O   0  0  0  0  0  0  0  0  0  0  0  0
    1.8050    0.9804    0.9819 C   0  0  0  0  0  0  0  0  0  0  0  0
    1.4486    1.3206    2.2990 C   0  0  0  0  0  0  0  0  0  0  0  0
    2.2432    0.9388    3.3723 C   0  0  0  0  0  0  0  0  0  0  0  0
    3.4045    0.2099    3.1425 C   0  0  0  0  0  0  0  0  0  0  0  0
    3.7928   -0.1422    1.8416 C   0  0  0  0  0  0  0  0  0  0  0  0
    4.9746   -0.8788    1.6529 C   0  0  0  0  0  0  0  0  0  0  0  0
    5.3978   -1.2480    0.3789 C   0  0  0  0  0  0  0  0  0  0  0  0
    4.6435   -0.8819   -0.7248 C   0  0  0  0  0  0  0  0  0  0  0  0
    3.4656   -0.1495   -0.5528 C   0  0  0  0  0  0  0  0  0  0  0  0
    2.9991    0.2423    0.7277 C   0  0  0  0  0  0  0  0  0  0  0  0
   -2.5209    0.8593   -1.1501 C   0  0  0  0  0  0  0  0  0  0  0  0
   -3.4449    0.8260   -2.1659 F   0  0  0  0  0  0  0  0  0  0  0  0
   -2.1466    2.1703   -1.0754 F   0  0  0  0  0  0  0  0  0  0  0  0
   -3.1362    0.3763    0.1518 C   0  0  0  0  0  0  0  0  0  0  0  0
   -2.8205    1.0037    1.3681 C   0  0  0  0  0  0  0  0  0  0  0  0
   -3.3697    0.5474    2.5672 C   0  0  0  0  0  0  0  0  0  0  0  0
   -4.2505   -0.5318    2.5645 C   0  0  0  0  0  0  0  0  0  0  0  0
   -4.5926   -1.1489    1.3633 C   0  0  0  0  0  0  0  0  0  0  0  0
   -4.0444   -0.6942    0.1631 C   0  0  0  0  0  0  0  0  0  0  0  0
   -2.3686   -1.2965   -2.8052 H   0  0  0  0  0  0  0  0  0  0  0  0
   -2.0324   -1.9070   -1.3299 H   0  0  0  0  0  0  0  0  0  0  0  0
   -0.9024    0.5203   -2.5300 H   0  0  0  0  0  0  0  0  0  0  0  0
   -0.4923   -0.5082    0.3358 H   0  0  0  0  0  0  0  0  0  0  0  0
    0.6358   -0.7487   -0.9993 H   0  0  0  0  0  0  0  0  0  0  0  0
    0.5462    1.8950    2.4972 H   0  0  0  0  0  0  0  0  0  0  0  0
    1.9618    1.2091    4.3868 H   0  0  0  0  0  0  0  0  0  0  0  0
    4.0151   -0.0806    3.9957 H   0  0  0  0  0  0  0  0  0  0  0  0
    5.5830   -1.1721    2.5063 H   0  0  0  0  0  0  0  0  0  0  0  0
    6.3160   -1.8142    0.2500 H   0  0  0  0  0  0  0  0  0  0  0  0
    4.9671   -1.1569   -1.7255 H   0  0  0  0  0  0  0  0  0  0  0  0
    2.9196    0.1197   -1.4534 H   0  0  0  0  0  0  0  0  0  0  0  0
   -2.1551    1.8648    1.3875 H   0  0  0  0  0  0  0  0  0  0  0  0
   -3.1201    1.0409    3.5036 H   0  0  0  0  0  0  0  0  0  0  0  0
   -4.6836   -0.8826    3.4979 H   0  0  0  0  0  0  0  0  0  0  0  0
   -5.2955   -1.9788    1.3608 H   0  0  0  0  0  0  0  0  0  0  0  0
   -4.3435   -1.1725   -0.7681 H   0  0  0  0  0  0  0  0  0  0  0  0
  1  2  1  0
  2  3  1  0
  4  3  1  6
  4  5  2  0
  4  6  1  0
  6  7  2  0
  7  8  1  0
  8  9  2  0
  9 10  1  0
 10 11  2  0
 11 12  1  0
 12 13  2  0
 13 14  1  0
 14 15  2  0
  2 16  1  0
 16 17  1  0
 16 18  1  0
 16 19  1  0
 19 20  2  0
 20 21  1  0
 21 22  2  0
 22 23  1  0
 23 24  2  0
 15  6  1  0
 24 19  1  0
 15 10  1  0
  1 25  1  0
  1 26  1  0
  2 27  1  6
  3 28  1  0
  3 29  1  0
  7 30  1  0
  8 31  1  0
  9 32  1  0
 11 33  1  0
 12 34  1  0
 13 35  1  0
 14 36  1  0
 20 37  1  0
 21 38  1  0
 22 39  1  0
 23 40  1  0
 24 41  1  0
M  END
