
     RDKit          3D

 42 41  0  0  0  0  0  0  0  0999 V2000
    3.0813   -1.6857    2.2077 C   0  0  0  0  0  0  0  0  0  0  0  0
    2.0404   -1.0253    1.2852 C   0  0  0  0  0  0  0  0  0  0  0  0
    2.2679   -1.5608   -0.1287 C   0  0  0  0  0  0  0  0  0  0  0  0
    0.5806   -1.2423    1.8024 C   0  0  1  0  0  0  0  0  0  0  0  0
    0.4447   -0.6535    3.1546 N   0  0  0  0  0  0  0  0  0  0  0  0
   -0.5923   -0.6607    0.9447 C   0  0  1  0  0  0  0  0  0  0  0  0
   -0.2843    0.6521    0.3321 C   0  0  0  0  0  0  0  0  0  0  0  0
   -0.0376    1.7233   -0.1530 C   0  0  0  0  0  0  0  0  0  0  0  0
    0.2690    3.0348   -0.7417 C   0  0  0  0  0  0  0  0  0  0  0  0
    1.1981    2.9165   -1.9510 C   0  0  0  0  0  0  0  0  0  0  0  0
    2.5972    2.3973   -1.6313 C   0  0  0  0  0  0  0  0  0  0  0  0
    3.5048    3.5181   -0.5897 Cl  0  0  0  0  0  0  0  0  0  0  0  0
   -1.4667   -1.8711   -0.3230 Si  0  0  0  0  0  4  0  0  0  0  0  0
   -0.6693   -1.8701   -2.0169 C   0  0  0  0  0  0  0  0  0  0  0  0
   -3.2529   -1.2709   -0.5168 C   0  0  0  0  0  0  0  0  0  0  0  0
   -1.4966   -3.6175    0.3663 C   0  0  0  0  0  0  0  0  0  0  0  0
    2.8693   -2.7518    2.3429 H   0  0  0  0  0  0  0  0  0  0  0  0
    4.0896   -1.5934    1.7886 H   0  0  0  0  0  0  0  0  0  0  0  0
    3.1101   -1.2115    3.1930 H   0  0  0  0  0  0  0  0  0  0  0  0
    2.2643    0.0497    1.2722 H   0  0  0  0  0  0  0  0  0  0  0  0
    3.3238   -1.4847   -0.4119 H   0  0  0  0  0  0  0  0  0  0  0  0
    1.9776   -2.6134   -0.2068 H   0  0  0  0  0  0  0  0  0  0  0  0
    1.7120   -0.9799   -0.8665 H   0  0  0  0  0  0  0  0  0  0  0  0
    0.4247   -2.3189    1.9355 H   0  0  0  0  0  0  0  0  0  0  0  0
    1.1175   -1.0670    3.7959 H   0  0  0  0  0  0  0  0  0  0  0  0
    0.6643    0.3426    3.1072 H   0  0  0  0  0  0  0  0  0  0  0  0
   -1.4347   -0.4902    1.6330 H   0  0  0  0  0  0  0  0  0  0  0  0
    0.6966    3.6971    0.0183 H   0  0  0  0  0  0  0  0  0  0  0  0
   -0.6681    3.5025   -1.0672 H   0  0  0  0  0  0  0  0  0  0  0  0
    0.7429    2.2460   -2.6914 H   0  0  0  0  0  0  0  0  0  0  0  0
    1.2791    3.8998   -2.4312 H   0  0  0  0  0  0  0  0  0  0  0  0
    2.5691    1.4245   -1.1339 H   0  0  0  0  0  0  0  0  0  0  0  0
    3.1711    2.2840   -2.5562 H   0  0  0  0  0  0  0  0  0  0  0  0
   -1.3346   -2.3416   -2.7471 H   0  0  0  0  0  0  0  0  0  0  0  0
   -0.4648   -0.8517   -2.3593 H   0  0  0  0  0  0  0  0  0  0  0  0
    0.2670   -2.4333   -2.0181 H   0  0  0  0  0  0  0  0  0  0  0  0
   -3.8015   -1.9264   -1.1993 H   0  0  0  0  0  0  0  0  0  0  0  0
   -3.7618   -1.2721    0.4514 H   0  0  0  0  0  0  0  0  0  0  0  0
   -3.2716   -0.2543   -0.9199 H   0  0  0  0  0  0  0  0  0  0  0  0
   -2.0923   -4.2728   -0.2761 H   0  0  0  0  0  0  0  0  0  0  0  0
   -0.4851   -4.0296    0.4264 H   0  0  0  0  0  0  0  0  0  0  0  0
   -1.9351   -3.6298    1.3685 H   0  0  0  0  0  0  0  0  0  0  0  0
  1  2  1  0
  2  3  1  0
  2  4  1  0
  4  5  1  0
  4  6  1  0
  6  7  1  0
  7  8  3  0
  8  9  1  0
  9 10  1  0
 10 11  1  0
 11 12  1  0
  6 13  1  0
 13 14  1  0
 13 15  1  0
 13 16  1  0
  1 17  1  0
  1 18  1  0
  1 19  1  0
  2 20  1  0
  3 21  1  0
  3 22  1  0
  3 23  1  0
  4 24  1  1
  5 25  1  0
  5 26  1  0
  6 27  1  1
  9 28  1  0
  9 29  1  0
 10 30  1  0
 10 31  1  0
 11 32  1  0
 11 33  1  0
 14 34  1  0
 14 35  1  0
 14 36  1  0
 15 37  1  0
 15 38  1  0
 15 39  1  0
 16 40  1  0
 16 41  1  0
 16 42  1  0
M  END
