
     RDKit          3D

 26 25  0  0  0  0  0  0  0  0999 V2000
   -0.1126    3.3547   -0.0516 C   0  0  0  0  0  0  0  0  0  0  0  0
   -0.4374    1.8777    0.2165 C   0  0  0  0  0  0  0  0  0  0  0  0
   -1.7829    1.5301   -0.4298 C   0  0  0  0  0  0  0  0  0  0  0  0
    0.7320    0.9552   -0.2184 C   0  0  2  0  0  0  0  0  0  0  0  0
    0.9778    1.0635   -1.6641 N   0  0  0  0  0  0  0  0  0  0  0  0
    0.5688   -0.5371    0.1470 C   0  0  0  0  0  0  0  0  0  0  0  0
    0.5040   -0.8263    1.6543 C   0  0  0  0  0  0  0  0  0  0  0  0
   -0.8960   -0.9745    2.1812 C   0  0  0  0  0  0  0  0  0  0  0  0
   -1.4115   -2.1302    2.6196 C   0  0  0  0  0  0  0  0  0  0  0  0
   -0.0399    3.5687   -1.1230 H   0  0  0  0  0  0  0  0  0  0  0  0
   -0.8933    4.0011    0.3641 H   0  0  0  0  0  0  0  0  0  0  0  0
    0.8353    3.6363    0.4190 H   0  0  0  0  0  0  0  0  0  0  0  0
   -0.5543    1.7865    1.3025 H   0  0  0  0  0  0  0  0  0  0  0  0
   -2.5757    2.1685   -0.0240 H   0  0  0  0  0  0  0  0  0  0  0  0
   -1.7645    1.6804   -1.5140 H   0  0  0  0  0  0  0  0  0  0  0  0
   -2.0707    0.4936   -0.2352 H   0  0  0  0  0  0  0  0  0  0  0  0
    1.6403    1.3171    0.2809 H   0  0  0  0  0  0  0  0  0  0  0  0
    0.1941    0.6618   -2.1777 H   0  0  0  0  0  0  0  0  0  0  0  0
    1.7912    0.5032   -1.9166 H   0  0  0  0  0  0  0  0  0  0  0  0
   -0.2905   -0.9789   -0.3729 H   0  0  0  0  0  0  0  0  0  0  0  0
    1.4513   -1.0687   -0.2377 H   0  0  0  0  0  0  0  0  0  0  0  0
    1.0248   -0.0481    2.2241 H   0  0  0  0  0  0  0  0  0  0  0  0
    1.0547   -1.7572    1.8441 H   0  0  0  0  0  0  0  0  0  0  0  0
   -1.5166   -0.0832    2.2245 H   0  0  0  0  0  0  0  0  0  0  0  0
   -0.8393   -3.0527    2.6110 H   0  0  0  0  0  0  0  0  0  0  0  0
   -2.4278   -2.1759    2.9993 H   0  0  0  0  0  0  0  0  0  0  0  0
  1  2  1  0
  2  3  1  0
  2  4  1  0
  4  5  1  0
  4  6  1  0
  6  7  1  0
  7  8  1  0
  8  9  2  3
  1 10  1  0
  1 11  1  0
  1 12  1  0
  2 13  1  0
  3 14  1  0
  3 15  1  0
  3 16  1  0
  4 17  1  1
  5 18  1  0
  5 19  1  0
  6 20  1  0
  6 21  1  0
  7 22  1  0
  7 23  1  0
  8 24  1  0
  9 25  1  0
  9 26  1  0
M  END
