
     RDKit          3D

 27 27  0  0  0  0  0  0  0  0999 V2000
    0.2914    0.8154   -2.2260 C   0  0  0  0  0  0  0  0  0  0  0  0
    0.4377    1.0881   -0.7302 C   0  0  1  0  0  0  0  0  0  0  0  0
    1.2184    2.3192   -0.5654 N   0  0  0  0  0  0  0  0  0  0  0  0
   -0.9166    1.2392   -0.0135 C   0  0  0  0  0  0  0  0  0  0  0  0
   -1.8102   -0.0084   -0.0467 C   0  0  0  0  0  0  0  0  0  0  0  0
   -1.2286   -1.1967    0.6809 C   0  0  0  0  0  0  0  0  0  0  0  0
   -1.1315   -1.1957    2.0793 C   0  0  0  0  0  0  0  0  0  0  0  0
   -0.5876   -2.2918    2.7539 C   0  0  0  0  0  0  0  0  0  0  0  0
   -0.1354   -3.4028    2.0367 C   0  0  0  0  0  0  0  0  0  0  0  0
   -0.2313   -3.4122    0.6423 C   0  0  0  0  0  0  0  0  0  0  0  0
   -0.7760   -2.3155   -0.0311 C   0  0  0  0  0  0  0  0  0  0  0  0
    0.4222   -4.5280    2.7280 C   0  0  0  0  0  0  0  0  0  0  0  0
    0.8723   -5.4392    3.2887 N   0  0  0  0  0  0  0  0  0  0  0  0
   -0.3112    1.5867   -2.7187 H   0  0  0  0  0  0  0  0  0  0  0  0
    1.2713    0.7894   -2.7166 H   0  0  0  0  0  0  0  0  0  0  0  0
   -0.1828   -0.1531   -2.4099 H   0  0  0  0  0  0  0  0  0  0  0  0
    1.0114    0.2720   -0.2779 H   0  0  0  0  0  0  0  0  0  0  0  0
    1.3402    2.5183    0.4269 H   0  0  0  0  0  0  0  0  0  0  0  0
    0.7081    3.1113   -0.9542 H   0  0  0  0  0  0  0  0  0  0  0  0
   -0.7416    1.5269    1.0318 H   0  0  0  0  0  0  0  0  0  0  0  0
   -1.4769    2.0677   -0.4678 H   0  0  0  0  0  0  0  0  0  0  0  0
   -2.7731    0.2350    0.4219 H   0  0  0  0  0  0  0  0  0  0  0  0
   -2.0544   -0.2764   -1.0811 H   0  0  0  0  0  0  0  0  0  0  0  0
   -1.4816   -0.3400    2.6535 H   0  0  0  0  0  0  0  0  0  0  0  0
   -0.5209   -2.2710    3.8401 H   0  0  0  0  0  0  0  0  0  0  0  0
    0.1162   -4.2707    0.0705 H   0  0  0  0  0  0  0  0  0  0  0  0
   -0.8420   -2.3420   -1.1171 H   0  0  0  0  0  0  0  0  0  0  0  0
  1  2  1  0
  2  3  1  0
  2  4  1  0
  4  5  1  0
  5  6  1  0
  6  7  2  0
  7  8  1  0
  8  9  2  0
  9 10  1  0
 10 11  2  0
  9 12  1  0
 12 13  3  0
 11  6  1  0
  1 14  1  0
  1 15  1  0
  1 16  1  0
  2 17  1  1
  3 18  1  0
  3 19  1  0
  4 20  1  0
  4 21  1  0
  5 22  1  0
  5 23  1  0
  7 24  1  0
  8 25  1  0
 10 26  1  0
 11 27  1  0
M  END
