
     RDKit          3D

 13 12  0  0  0  0  0  0  0  0999 V2000
   -0.1013    0.2025   -0.4758 N   0  0  0  0  0  0  0  0  0  0  0  0
    0.4984   -0.4638    0.6694 C   0  0  2  0  0  0  0  0  0  0  0  0
    0.1500    0.1679    1.9936 C   0  0  0  0  0  0  0  0  0  0  0  0
   -0.5803    1.2687    2.2330 C   0  0  0  0  0  0  0  0  0  0  0  0
    1.9611   -0.4678    0.5100 C   0  0  0  0  0  0  0  0  0  0  0  0
    3.1553   -0.4732    0.3743 C   0  0  0  0  0  0  0  0  0  0  0  0
    0.2499    1.1566   -0.5109 H   0  0  0  0  0  0  0  0  0  0  0  0
   -1.1054    0.2580   -0.3307 H   0  0  0  0  0  0  0  0  0  0  0  0
    0.1379   -1.4989    0.6853 H   0  0  0  0  0  0  0  0  0  0  0  0
    0.5486   -0.3620    2.8592 H   0  0  0  0  0  0  0  0  0  0  0  0
   -0.7485    1.6034    3.2527 H   0  0  0  0  0  0  0  0  0  0  0  0
   -1.0188    1.8669    1.4421 H   0  0  0  0  0  0  0  0  0  0  0  0
    4.2129   -0.4765    0.2467 H   0  0  0  0  0  0  0  0  0  0  0  0
  1  2  1  0
  2  3  1  0
  3  4  2  3
  2  5  1  0
  5  6  3  0
  1  7  1  0
  1  8  1  0
  2  9  1  1
  3 10  1  0
  4 11  1  0
  4 12  1  0
  6 13  1  0
M  END
