
     RDKit          3D

 17 16  0  0  0  0  0  0  0  0999 V2000
    1.6552    1.0329   -2.0662 C   0  0  0  0  0  0  0  0  0  0  0  0
    0.6340    0.6309   -1.0084 C   0  0  0  0  0  0  0  0  0  0  0  0
    0.0849   -0.7965   -1.1898 C   0  0  2  0  0  0  0  0  0  0  0  0
   -0.9967   -1.0058   -0.2259 N   0  0  0  0  0  0  0  0  0  0  0  0
    1.1631   -1.8455   -1.0641 C   0  0  0  0  0  0  0  0  0  0  0  0
    1.3275   -2.7328   -0.0716 C   0  0  0  0  0  0  0  0  0  0  0  0
    1.9312    2.0847   -1.9390 H   0  0  0  0  0  0  0  0  0  0  0  0
    1.2455    0.9104   -3.0738 H   0  0  0  0  0  0  0  0  0  0  0  0
    2.5715    0.4402   -1.9887 H   0  0  0  0  0  0  0  0  0  0  0  0
    1.0888    0.7426   -0.0153 H   0  0  0  0  0  0  0  0  0  0  0  0
   -0.1955    1.3489   -1.0561 H   0  0  0  0  0  0  0  0  0  0  0  0
   -0.3482   -0.8841   -2.1941 H   0  0  0  0  0  0  0  0  0  0  0  0
   -1.4263   -1.9100   -0.4156 H   0  0  0  0  0  0  0  0  0  0  0  0
   -1.7239   -0.3101   -0.3785 H   0  0  0  0  0  0  0  0  0  0  0  0
    1.8765   -1.8785   -1.8861 H   0  0  0  0  0  0  0  0  0  0  0  0
    0.6667   -2.7560    0.7896 H   0  0  0  0  0  0  0  0  0  0  0  0
    2.1451   -3.4458   -0.0922 H   0  0  0  0  0  0  0  0  0  0  0  0
  1  2  1  0
  2  3  1  0
  3  4  1  0
  3  5  1  0
  5  6  2  3
  1  7  1  0
  1  8  1  0
  1  9  1  0
  2 10  1  0
  2 11  1  0
  3 12  1  6
  4 13  1  0
  4 14  1  0
  5 15  1  0
  6 16  1  0
  6 17  1  0
M  END
