
     RDKit          3D

 50 49  0  0  0  0  0  0  0  0999 V2000
   -0.7329   -4.8395   -0.1870 C   0  0  0  0  0  0  0  0  0  0  0  0
   -1.2279   -3.8928    0.8951 C   0  0  0  0  0  0  0  0  0  0  0  0
   -2.7439   -3.7025    0.8921 C   0  0  0  0  0  0  0  0  0  0  0  0
   -3.3561   -3.0937   -0.3748 C   0  0  0  0  0  0  0  0  0  0  0  0
   -2.9605   -1.6367   -0.6455 C   0  0  0  0  0  0  0  0  0  0  0  0
   -1.7771   -1.4966   -1.6071 C   0  0  0  0  0  0  0  0  0  0  0  0
   -1.4945   -0.0460   -2.0135 C   0  0  0  0  0  0  0  0  0  0  0  0
   -1.1433    0.9090   -0.8681 C   0  0  0  0  0  0  0  0  0  0  0  0
    0.0486    0.4946    0.0007 C   0  0  0  0  0  0  0  0  0  0  0  0
    1.3703    0.2861   -0.7443 C   0  0  0  0  0  0  0  0  0  0  0  0
    1.8847    1.4921   -1.5305 C   0  0  0  0  0  0  0  0  0  0  0  0
    2.1208    2.7965   -0.7516 C   0  0  0  0  0  0  0  0  0  0  0  0
    3.2609    2.8475    0.2947 C   0  0  2  0  0  0  0  0  0  0  0  0
    4.4839    2.2054   -0.2084 N   0  0  0  0  0  0  0  0  0  0  0  0
    2.9104    2.2904    1.6943 C   0  0  0  0  0  0  0  0  0  0  0  0
    1.8575    2.9965    2.5143 C   0  0  0  0  0  0  0  0  0  0  0  0
    1.3241    4.2071    2.3065 C   0  0  0  0  0  0  0  0  0  0  0  0
    0.3456   -4.9965   -0.0834 H   0  0  0  0  0  0  0  0  0  0  0  0
   -1.2250   -5.8142   -0.1096 H   0  0  0  0  0  0  0  0  0  0  0  0
   -0.9150   -4.4410   -1.1888 H   0  0  0  0  0  0  0  0  0  0  0  0
   -0.9372   -4.3043    1.8697 H   0  0  0  0  0  0  0  0  0  0  0  0
   -0.7197   -2.9277    0.8110 H   0  0  0  0  0  0  0  0  0  0  0  0
   -3.0171   -3.0783    1.7523 H   0  0  0  0  0  0  0  0  0  0  0  0
   -3.2172   -4.6778    1.0642 H   0  0  0  0  0  0  0  0  0  0  0  0
   -4.4452   -3.1149   -0.2346 H   0  0  0  0  0  0  0  0  0  0  0  0
   -3.1569   -3.7251   -1.2476 H   0  0  0  0  0  0  0  0  0  0  0  0
   -3.8233   -1.1326   -1.0998 H   0  0  0  0  0  0  0  0  0  0  0  0
   -2.7596   -1.1215    0.2999 H   0  0  0  0  0  0  0  0  0  0  0  0
   -0.8744   -1.9386   -1.1787 H   0  0  0  0  0  0  0  0  0  0  0  0
   -1.9917   -2.0647   -2.5211 H   0  0  0  0  0  0  0  0  0  0  0  0
   -2.3739    0.3526   -2.5351 H   0  0  0  0  0  0  0  0  0  0  0  0
   -0.6833   -0.0433   -2.7510 H   0  0  0  0  0  0  0  0  0  0  0  0
   -0.9555    1.9029   -1.2917 H   0  0  0  0  0  0  0  0  0  0  0  0
   -2.0183    1.0310   -0.2183 H   0  0  0  0  0  0  0  0  0  0  0  0
   -0.1971   -0.4306    0.5349 H   0  0  0  0  0  0  0  0  0  0  0  0
    0.1825    1.2527    0.7790 H   0  0  0  0  0  0  0  0  0  0  0  0
    1.2576   -0.5522   -1.4426 H   0  0  0  0  0  0  0  0  0  0  0  0
    2.1347   -0.0415   -0.0328 H   0  0  0  0  0  0  0  0  0  0  0  0
    1.1710    1.7119   -2.3347 H   0  0  0  0  0  0  0  0  0  0  0  0
    2.8068    1.2012   -2.0479 H   0  0  0  0  0  0  0  0  0  0  0  0
    2.3575    3.5581   -1.5089 H   0  0  0  0  0  0  0  0  0  0  0  0
    1.1774    3.1262   -0.3052 H   0  0  0  0  0  0  0  0  0  0  0  0
    3.5183    3.9060    0.4294 H   0  0  0  0  0  0  0  0  0  0  0  0
    4.6931    2.5559   -1.1424 H   0  0  0  0  0  0  0  0  0  0  0  0
    4.3342    1.2023   -0.3057 H   0  0  0  0  0  0  0  0  0  0  0  0
    3.8223    2.2889    2.3080 H   0  0  0  0  0  0  0  0  0  0  0  0
    2.6151    1.2404    1.6121 H   0  0  0  0  0  0  0  0  0  0  0  0
    1.5184    2.4401    3.3879 H   0  0  0  0  0  0  0  0  0  0  0  0
    1.6154    4.8431    1.4781 H   0  0  0  0  0  0  0  0  0  0  0  0
    0.5749    4.6012    2.9875 H   0  0  0  0  0  0  0  0  0  0  0  0
  1  2  1  0
  2  3  1  0
  3  4  1  0
  4  5  1  0
  5  6  1  0
  6  7  1  0
  7  8  1  0
  8  9  1  0
  9 10  1  0
 10 11  1  0
 11 12  1  0
 12 13  1  0
 13 14  1  0
 13 15  1  0
 15 16  1  0
 16 17  2  3
  1 18  1  0
  1 19  1  0
  1 20  1  0
  2 21  1  0
  2 22  1  0
  3 23  1  0
  3 24  1  0
  4 25  1  0
  4 26  1  0
  5 27  1  0
  5 28  1  0
  6 29  1  0
  6 30  1  0
  7 31  1  0
  7 32  1  0
  8 33  1  0
  8 34  1  0
  9 35  1  0
  9 36  1  0
 10 37  1  0
 10 38  1  0
 11 39  1  0
 11 40  1  0
 12 41  1  0
 12 42  1  0
 13 43  1  1
 14 44  1  0
 14 45  1  0
 15 46  1  0
 15 47  1  0
 16 48  1  0
 17 49  1  0
 17 50  1  0
M  END
