
     RDKit          3D

 30 31  0  0  0  0  0  0  0  0999 V2000
    4.2642   -3.2214   -0.4649 C   0  0  0  0  0  0  0  0  0  0  0  0
    2.9501   -3.8595   -0.0155 C   0  0  2  0  0  0  0  0  0  0  0  0
    2.5454   -4.8729   -0.9967 N   0  0  0  0  0  0  0  0  0  0  0  0
    1.9183   -2.7814    0.2388 C   0  0  0  0  0  0  0  0  0  0  0  0
    2.0637   -2.0797    1.3903 F   0  0  0  0  0  0  0  0  0  0  0  0
    0.8668   -2.5077   -0.5539 C   0  0  0  0  0  0  0  0  0  0  0  0
   -0.1547   -1.4805   -0.3035 C   0  0  0  0  0  0  0  0  0  0  0  0
   -1.4742   -1.7380   -0.6899 C   0  0  0  0  0  0  0  0  0  0  0  0
   -2.4731   -0.7777   -0.5036 C   0  0  0  0  0  0  0  0  0  0  0  0
   -2.1715    0.4689    0.0631 C   0  0  0  0  0  0  0  0  0  0  0  0
   -3.1623    1.4452    0.2573 C   0  0  0  0  0  0  0  0  0  0  0  0
   -2.8436    2.6827    0.8185 C   0  0  0  0  0  0  0  0  0  0  0  0
   -1.5318    2.9596    1.1915 C   0  0  0  0  0  0  0  0  0  0  0  0
   -0.5361    1.9993    1.0046 C   0  0  0  0  0  0  0  0  0  0  0  0
   -0.8399    0.7484    0.4426 C   0  0  0  0  0  0  0  0  0  0  0  0
    0.1526   -0.2293    0.2476 C   0  0  0  0  0  0  0  0  0  0  0  0
    4.6168   -2.4895    0.2709 H   0  0  0  0  0  0  0  0  0  0  0  0
    4.1547   -2.7039   -1.4254 H   0  0  0  0  0  0  0  0  0  0  0  0
    5.0502   -3.9768   -0.5773 H   0  0  0  0  0  0  0  0  0  0  0  0
    3.1262   -4.3759    0.9361 H   0  0  0  0  0  0  0  0  0  0  0  0
    1.7699   -5.4080   -0.6065 H   0  0  0  0  0  0  0  0  0  0  0  0
    3.3065   -5.5388   -1.1226 H   0  0  0  0  0  0  0  0  0  0  0  0
    0.7271   -3.0827   -1.4664 H   0  0  0  0  0  0  0  0  0  0  0  0
   -1.7420   -2.6939   -1.1346 H   0  0  0  0  0  0  0  0  0  0  0  0
   -3.4906   -1.0122   -0.8076 H   0  0  0  0  0  0  0  0  0  0  0  0
   -4.1927    1.2472   -0.0289 H   0  0  0  0  0  0  0  0  0  0  0  0
   -3.6199    3.4293    0.9635 H   0  0  0  0  0  0  0  0  0  0  0  0
   -1.2814    3.9226    1.6286 H   0  0  0  0  0  0  0  0  0  0  0  0
    0.4834    2.2333    1.3033 H   0  0  0  0  0  0  0  0  0  0  0  0
    1.1799   -0.0041    0.5266 H   0  0  0  0  0  0  0  0  0  0  0  0
  1  2  1  0
  2  3  1  0
  2  4  1  0
  4  5  1  0
  4  6  2  0
  6  7  1  0
  7  8  2  0
  8  9  1  0
  9 10  2  0
 10 11  1  0
 11 12  2  0
 12 13  1  0
 13 14  2  0
 14 15  1  0
 15 16  2  0
 16  7  1  0
 15 10  1  0
  1 17  1  0
  1 18  1  0
  1 19  1  0
  2 20  1  1
  3 21  1  0
  3 22  1  0
  6 23  1  0
  8 24  1  0
  9 25  1  0
 11 26  1  0
 12 27  1  0
 13 28  1  0
 14 29  1  0
 16 30  1  0
M  END
