
     RDKit          3D

 27 27  0  0  0  0  0  0  0  0999 V2000
    2.2714   -2.1874    3.1507 C   0  0  0  0  0  0  0  0  0  0  0  0
    3.3550   -0.9160    2.4471 S   0  0  0  0  0  0  0  0  0  0  0  0
    2.4370   -0.5016    0.9746 C   0  0  0  0  0  0  0  0  0  0  0  0
    2.0662   -1.4703    0.0387 C   0  0  0  0  0  0  0  0  0  0  0  0
    1.3568   -1.1085   -1.1101 C   0  0  0  0  0  0  0  0  0  0  0  0
    1.0128    0.2289   -1.3452 C   0  0  0  0  0  0  0  0  0  0  0  0
    0.2420    0.6150   -2.5883 C   0  0  0  0  0  0  0  0  0  0  0  0
   -1.2993    0.5455   -2.4826 C   0  0  2  0  0  0  0  0  0  0  0  0
   -1.8678    1.5004   -1.4325 C   0  0  0  0  0  0  0  0  0  0  0  0
   -1.7821   -0.8188   -2.2341 N   0  0  0  0  0  0  0  0  0  0  0  0
    1.4030    1.1993   -0.4142 C   0  0  0  0  0  0  0  0  0  0  0  0
    2.1122    0.8361    0.7343 C   0  0  0  0  0  0  0  0  0  0  0  0
    2.6423   -2.4616    4.1420 H   0  0  0  0  0  0  0  0  0  0  0  0
    2.2656   -3.0851    2.5274 H   0  0  0  0  0  0  0  0  0  0  0  0
    1.2511   -1.8082    3.2554 H   0  0  0  0  0  0  0  0  0  0  0  0
    2.3365   -2.5130    0.1808 H   0  0  0  0  0  0  0  0  0  0  0  0
    1.0777   -1.8777   -1.8283 H   0  0  0  0  0  0  0  0  0  0  0  0
    0.5334    1.6328   -2.8814 H   0  0  0  0  0  0  0  0  0  0  0  0
    0.5756   -0.0240   -3.4176 H   0  0  0  0  0  0  0  0  0  0  0  0
   -1.6985    0.8521   -3.4574 H   0  0  0  0  0  0  0  0  0  0  0  0
   -1.5084    2.5210   -1.6017 H   0  0  0  0  0  0  0  0  0  0  0  0
   -2.9624    1.5240   -1.4826 H   0  0  0  0  0  0  0  0  0  0  0  0
   -1.5915    1.2051   -0.4148 H   0  0  0  0  0  0  0  0  0  0  0  0
   -2.7993   -0.8115   -2.1647 H   0  0  0  0  0  0  0  0  0  0  0  0
   -1.4471   -1.1262   -1.3197 H   0  0  0  0  0  0  0  0  0  0  0  0
    1.1616    2.2473   -0.5764 H   0  0  0  0  0  0  0  0  0  0  0  0
    2.4083    1.6087    1.4402 H   0  0  0  0  0  0  0  0  0  0  0  0
  1  2  1  0
  2  3  1  0
  3  4  2  0
  4  5  1  0
  5  6  2  0
  6  7  1  0
  7  8  1  0
  8  9  1  0
  8 10  1  0
  6 11  1  0
 11 12  2  0
 12  3  1  0
  1 13  1  0
  1 14  1  0
  1 15  1  0
  4 16  1  0
  5 17  1  0
  7 18  1  0
  7 19  1  0
  8 20  1  6
  9 21  1  0
  9 22  1  0
  9 23  1  0
 10 24  1  0
 10 25  1  0
 11 26  1  0
 12 27  1  0
M  END
