
     RDKit          3D

 33 34  0  0  0  0  0  0  0  0999 V2000
    1.0851   -3.8073    2.1072 N   0  0  0  0  0  0  0  0  0  0  0  0
    0.8449   -2.7930    1.0600 C   0  0  2  0  0  0  0  0  0  0  0  0
    1.5080   -3.2604   -0.2444 C   0  0  0  0  0  0  0  0  0  0  0  0
    1.2833   -2.3734   -1.4488 C   0  0  0  0  0  0  0  0  0  0  0  0
   -0.0094   -2.1462   -1.8138 N   0  0  0  0  0  0  0  0  0  0  0  0
    2.2096   -1.9271   -2.1192 O   0  0  0  0  0  0  0  0  0  0  0  0
    1.3708   -1.4278    1.5670 C   0  0  0  0  0  0  0  0  0  0  0  0
    0.7252   -0.2364    0.8976 C   0  0  0  0  0  0  0  0  0  0  0  0
    1.4493    0.5684    0.0136 C   0  0  0  0  0  0  0  0  0  0  0  0
    0.8362    1.6492   -0.6242 C   0  0  0  0  0  0  0  0  0  0  0  0
   -0.5114    1.9555   -0.3845 C   0  0  0  0  0  0  0  0  0  0  0  0
   -1.1417    3.0360   -1.0225 C   0  0  0  0  0  0  0  0  0  0  0  0
   -2.4827    3.3294   -0.7702 C   0  0  0  0  0  0  0  0  0  0  0  0
   -3.2093    2.5479    0.1233 C   0  0  0  0  0  0  0  0  0  0  0  0
   -2.5970    1.4702    0.7652 C   0  0  0  0  0  0  0  0  0  0  0  0
   -1.2493    1.1602    0.5201 C   0  0  0  0  0  0  0  0  0  0  0  0
   -0.6193    0.0759    1.1534 C   0  0  0  0  0  0  0  0  0  0  0  0
    2.0873   -3.8993    2.2786 H   0  0  0  0  0  0  0  0  0  0  0  0
    0.7707   -4.7227    1.7851 H   0  0  0  0  0  0  0  0  0  0  0  0
   -0.2409   -2.7435    0.9228 H   0  0  0  0  0  0  0  0  0  0  0  0
    1.1441   -4.2601   -0.5163 H   0  0  0  0  0  0  0  0  0  0  0  0
    2.5927   -3.3512   -0.0997 H   0  0  0  0  0  0  0  0  0  0  0  0
   -0.7526   -2.1644   -1.1291 H   0  0  0  0  0  0  0  0  0  0  0  0
   -0.1208   -1.4554   -2.5474 H   0  0  0  0  0  0  0  0  0  0  0  0
    1.1726   -1.3261    2.6436 H   0  0  0  0  0  0  0  0  0  0  0  0
    2.4630   -1.3801    1.4659 H   0  0  0  0  0  0  0  0  0  0  0  0
    2.4933    0.3507   -0.2060 H   0  0  0  0  0  0  0  0  0  0  0  0
    1.4234    2.2491   -1.3164 H   0  0  0  0  0  0  0  0  0  0  0  0
   -0.5887    3.6600   -1.7211 H   0  0  0  0  0  0  0  0  0  0  0  0
   -2.9574    4.1702   -1.2693 H   0  0  0  0  0  0  0  0  0  0  0  0
   -4.2525    2.7780    0.3235 H   0  0  0  0  0  0  0  0  0  0  0  0
   -3.1809    0.8738    1.4626 H   0  0  0  0  0  0  0  0  0  0  0  0
   -1.1814   -0.5343    1.8591 H   0  0  0  0  0  0  0  0  0  0  0  0
  1  2  1  0
  2  3  1  0
  3  4  1  0
  4  5  1  0
  4  6  2  0
  2  7  1  0
  7  8  1  0
  8  9  2  0
  9 10  1  0
 10 11  2  0
 11 12  1  0
 12 13  2  0
 13 14  1  0
 14 15  2  0
 15 16  1  0
 16 17  2  0
 17  8  1  0
 16 11  1  0
  1 18  1  0
  1 19  1  0
  2 20  1  6
  3 21  1  0
  3 22  1  0
  5 23  1  0
  5 24  1  0
  7 25  1  0
  7 26  1  0
  9 27  1  0
 10 28  1  0
 12 29  1  0
 13 30  1  0
 14 31  1  0
 15 32  1  0
 17 33  1  0
M  END
