
     RDKit          3D

 44 46  0  0  0  0  0  0  0  0999 V2000
   -0.7835   -2.0170    3.8089 C   0  0  0  0  0  0  0  0  0  0  0  0
   -0.8716   -1.5082    2.3658 C   0  0  1  0  0  0  0  0  0  0  0  0
   -2.1976   -0.9335    2.1562 N   0  0  0  0  0  0  0  0  0  0  0  0
    0.2620   -0.4953    2.0976 C   0  0  0  0  0  0  0  0  0  0  0  0
    0.4683    0.0084    0.6101 C   0  0  0  0  0  0  0  0  0  0  0  0
    1.7529    0.9510    0.6212 C   0  0  0  0  0  0  0  0  0  0  0  0
    2.1312    1.4739   -0.5898 N   0  0  0  0  0  0  0  0  0  0  0  0
    2.4093    1.2222    1.6258 O   0  0  0  0  0  0  0  0  0  0  0  0
    0.8561   -1.2641   -0.2149 C   0  0  0  0  0  0  0  0  0  0  0  0
    0.0038   -1.9878   -1.0679 C   0  0  0  0  0  0  0  0  0  0  0  0
   -1.3923   -1.5445   -1.3938 C   0  0  0  0  0  0  0  0  0  0  0  0
   -1.3577   -0.1666   -2.0223 C   0  0  0  0  0  0  0  0  0  0  0  0
   -1.4549    0.9247   -0.9933 C   0  0  0  0  0  0  0  0  0  0  0  0
   -0.6828    0.9801    0.1833 C   0  0  0  0  0  0  0  0  0  0  0  0
   -0.9107    2.1017    1.0345 C   0  0  0  0  0  0  0  0  0  0  0  0
   -1.8484    3.0965    0.7532 C   0  0  0  0  0  0  0  0  0  0  0  0
   -2.5923    3.0209   -0.4075 C   0  0  0  0  0  0  0  0  0  0  0  0
   -2.3914    1.9508   -1.2719 C   0  0  0  0  0  0  0  0  0  0  0  0
    0.4529   -3.1833   -1.6755 C   0  0  0  0  0  0  0  0  0  0  0  0
    1.7334   -3.6779   -1.4563 C   0  0  0  0  0  0  0  0  0  0  0  0
    2.5874   -2.9901   -0.6151 C   0  0  0  0  0  0  0  0  0  0  0  0
    2.1518   -1.8144   -0.0011 C   0  0  0  0  0  0  0  0  0  0  0  0
   -1.5619   -2.7609    4.0130 H   0  0  0  0  0  0  0  0  0  0  0  0
   -0.8970   -1.2008    4.5314 H   0  0  0  0  0  0  0  0  0  0  0  0
    0.1840   -2.4970    3.9914 H   0  0  0  0  0  0  0  0  0  0  0  0
   -0.7631   -2.3753    1.7074 H   0  0  0  0  0  0  0  0  0  0  0  0
   -2.3090   -0.0843    2.7087 H   0  0  0  0  0  0  0  0  0  0  0  0
   -2.9170   -1.5813    2.4726 H   0  0  0  0  0  0  0  0  0  0  0  0
    1.1974   -0.9651    2.4370 H   0  0  0  0  0  0  0  0  0  0  0  0
    0.1393    0.3522    2.7840 H   0  0  0  0  0  0  0  0  0  0  0  0
    1.4826    1.4819   -1.3663 H   0  0  0  0  0  0  0  0  0  0  0  0
    2.8727    2.1603   -0.5804 H   0  0  0  0  0  0  0  0  0  0  0  0
   -2.0321   -1.5988   -0.5078 H   0  0  0  0  0  0  0  0  0  0  0  0
   -1.8350   -2.2359   -2.1227 H   0  0  0  0  0  0  0  0  0  0  0  0
   -0.4671   -0.0039   -2.6427 H   0  0  0  0  0  0  0  0  0  0  0  0
   -2.2180   -0.1007   -2.7015 H   0  0  0  0  0  0  0  0  0  0  0  0
   -0.3230    2.2351    1.9426 H   0  0  0  0  0  0  0  0  0  0  0  0
   -1.9805    3.9299    1.4375 H   0  0  0  0  0  0  0  0  0  0  0  0
   -3.3228    3.7885   -0.6450 H   0  0  0  0  0  0  0  0  0  0  0  0
   -2.9875    1.9133   -2.1828 H   0  0  0  0  0  0  0  0  0  0  0  0
   -0.2075   -3.7428   -2.3362 H   0  0  0  0  0  0  0  0  0  0  0  0
    2.0559   -4.5974   -1.9360 H   0  0  0  0  0  0  0  0  0  0  0  0
    3.5884   -3.3659   -0.4214 H   0  0  0  0  0  0  0  0  0  0  0  0
    2.8555   -1.3313    0.6779 H   0  0  0  0  0  0  0  0  0  0  0  0
  1  2  1  0
  2  3  1  0
  2  4  1  0
  4  5  1  0
  5  6  1  0
  6  7  1  0
  6  8  2  0
  5  9  1  0
  9 10  2  0
 10 11  1  0
 11 12  1  0
 12 13  1  0
 13 14  2  0
 14 15  1  0
 15 16  2  0
 16 17  1  0
 17 18  2  0
 10 19  1  0
 19 20  2  0
 20 21  1  0
 21 22  2  0
 14  5  1  0
 22  9  1  0
 18 13  1  0
  1 23  1  0
  1 24  1  0
  1 25  1  0
  2 26  1  6
  3 27  1  0
  3 28  1  0
  4 29  1  0
  4 30  1  0
  7 31  1  0
  7 32  1  0
 11 33  1  0
 11 34  1  0
 12 35  1  0
 12 36  1  0
 15 37  1  0
 16 38  1  0
 17 39  1  0
 18 40  1  0
 19 41  1  0
 20 42  1  0
 21 43  1  0
 22 44  1  0
M  END
