
     RDKit          3D

 27 27  0  0  0  0  0  0  0  0999 V2000
    0.1740    2.4066    2.2332 C   0  0  0  0  0  0  0  0  0  0  0  0
   -0.0883    1.2589    1.2590 C   0  0  2  0  0  0  0  0  0  0  0  0
    1.2035    0.6930    0.8497 N   0  0  0  0  0  0  0  0  0  0  0  0
   -0.9224    1.7560    0.0576 C   0  0  0  0  0  0  0  0  0  0  0  0
   -1.3278    0.6584   -0.9014 C   0  0  0  0  0  0  0  0  0  0  0  0
   -0.7381    0.5665   -2.1697 C   0  0  0  0  0  0  0  0  0  0  0  0
   -1.1097   -0.4500   -3.0553 C   0  0  0  0  0  0  0  0  0  0  0  0
   -2.0743   -1.3913   -2.6781 C   0  0  0  0  0  0  0  0  0  0  0  0
   -2.6768   -1.2937   -1.4190 C   0  0  0  0  0  0  0  0  0  0  0  0
   -2.3032   -0.2785   -0.5353 C   0  0  0  0  0  0  0  0  0  0  0  0
   -2.5069   -2.4889   -3.5838 C   0  0  0  0  0  0  0  0  0  0  0  0
   -1.6412   -2.8709   -4.5717 N   0  0  0  0  0  0  0  0  0  0  0  0
   -3.5795   -3.0610   -3.4377 O   0  0  0  0  0  0  0  0  0  0  0  0
    0.7459    2.0618    3.1021 H   0  0  0  0  0  0  0  0  0  0  0  0
    0.7364    3.2185    1.7582 H   0  0  0  0  0  0  0  0  0  0  0  0
   -0.7696    2.8223    2.6030 H   0  0  0  0  0  0  0  0  0  0  0  0
   -0.6416    0.4780    1.7940 H   0  0  0  0  0  0  0  0  0  0  0  0
    1.0347   -0.0907    0.2174 H   0  0  0  0  0  0  0  0  0  0  0  0
    1.7257    1.3804    0.3086 H   0  0  0  0  0  0  0  0  0  0  0  0
   -0.3695    2.5352   -0.4843 H   0  0  0  0  0  0  0  0  0  0  0  0
   -1.8378    2.2430    0.4198 H   0  0  0  0  0  0  0  0  0  0  0  0
    0.0094    1.2931   -2.4819 H   0  0  0  0  0  0  0  0  0  0  0  0
   -0.6578   -0.4741   -4.0424 H   0  0  0  0  0  0  0  0  0  0  0  0
   -3.4400   -2.0109   -1.1221 H   0  0  0  0  0  0  0  0  0  0  0  0
   -2.7840   -0.2232    0.4394 H   0  0  0  0  0  0  0  0  0  0  0  0
   -0.6587   -2.6418   -4.5384 H   0  0  0  0  0  0  0  0  0  0  0  0
   -1.9043   -3.7045   -5.0826 H   0  0  0  0  0  0  0  0  0  0  0  0
  1  2  1  0
  2  3  1  0
  2  4  1  0
  4  5  1  0
  5  6  2  0
  6  7  1  0
  7  8  2  0
  8  9  1  0
  9 10  2  0
  8 11  1  0
 11 12  1  0
 11 13  2  0
 10  5  1  0
  1 14  1  0
  1 15  1  0
  1 16  1  0
  2 17  1  1
  3 18  1  0
  3 19  1  0
  4 20  1  0
  4 21  1  0
  6 22  1  0
  7 23  1  0
  9 24  1  0
 10 25  1  0
 12 26  1  0
 12 27  1  0
M  END
