
     RDKit          3D

 49 51  0  0  0  0  0  0  0  0999 V2000
   -1.3521   -2.8361   -0.1774 C   0  0  0  0  0  0  0  0  0  0  0  0
   -1.2497   -1.7074   -1.2061 C   0  0  1  0  0  0  0  0  0  0  0  0
   -2.5461   -1.0157   -1.2908 N   0  0  0  0  0  0  0  0  0  0  0  0
   -0.0712   -0.7054   -0.9709 C   0  0  2  0  0  0  0  0  0  0  0  0
    1.3348   -1.3611   -1.0388 C   0  0  0  0  0  0  0  0  0  0  0  0
    1.6903   -2.0183   -2.3805 C   0  0  0  0  0  0  0  0  0  0  0  0
    1.7806   -1.0485   -3.5321 C   0  0  0  0  0  0  0  0  0  0  0  0
    0.7989   -1.0330   -4.5317 C   0  0  0  0  0  0  0  0  0  0  0  0
    0.8795   -0.1258   -5.5896 C   0  0  0  0  0  0  0  0  0  0  0  0
    1.9420    0.7726   -5.6604 C   0  0  0  0  0  0  0  0  0  0  0  0
    2.9252    0.7650   -4.6734 C   0  0  0  0  0  0  0  0  0  0  0  0
    2.8456   -0.1407   -3.6144 C   0  0  0  0  0  0  0  0  0  0  0  0
   -0.2242    0.1316    0.3027 C   0  0  0  0  0  0  0  0  0  0  0  0
   -0.7581    1.4254    0.2123 C   0  0  0  0  0  0  0  0  0  0  0  0
   -0.9151    2.2157    1.3522 C   0  0  0  0  0  0  0  0  0  0  0  0
   -1.4275    3.4467    1.1956 F   0  0  0  0  0  0  0  0  0  0  0  0
   -0.5490    1.7580    2.6251 C   0  0  0  0  0  0  0  0  0  0  0  0
   -0.0174    0.4603    2.7096 C   0  0  0  0  0  0  0  0  0  0  0  0
    0.1428   -0.3396    1.5699 C   0  0  0  0  0  0  0  0  0  0  0  0
   -0.7135    2.5877    3.8326 C   0  0  0  0  0  0  0  0  0  0  0  0
   -1.9330    3.2248    4.1183 C   0  0  0  0  0  0  0  0  0  0  0  0
   -2.0913    4.0029    5.2688 C   0  0  0  0  0  0  0  0  0  0  0  0
   -1.0305    4.1590    6.1566 C   0  0  0  0  0  0  0  0  0  0  0  0
    0.1881    3.5397    5.8937 C   0  0  0  0  0  0  0  0  0  0  0  0
    0.3441    2.7618    4.7427 C   0  0  0  0  0  0  0  0  0  0  0  0
   -2.1375   -3.5457   -0.4633 H   0  0  0  0  0  0  0  0  0  0  0  0
   -1.6013   -2.4641    0.8212 H   0  0  0  0  0  0  0  0  0  0  0  0
   -0.4202   -3.4048   -0.1118 H   0  0  0  0  0  0  0  0  0  0  0  0
   -1.1019   -2.1767   -2.1844 H   0  0  0  0  0  0  0  0  0  0  0  0
   -2.7393   -0.5513   -0.4022 H   0  0  0  0  0  0  0  0  0  0  0  0
   -3.2942   -1.6964   -1.4161 H   0  0  0  0  0  0  0  0  0  0  0  0
   -0.1064    0.0109   -1.8047 H   0  0  0  0  0  0  0  0  0  0  0  0
    2.0925   -0.5998   -0.8069 H   0  0  0  0  0  0  0  0  0  0  0  0
    1.4365   -2.1246   -0.2589 H   0  0  0  0  0  0  0  0  0  0  0  0
    2.6660   -2.5124   -2.2808 H   0  0  0  0  0  0  0  0  0  0  0  0
    0.9862   -2.8251   -2.6131 H   0  0  0  0  0  0  0  0  0  0  0  0
   -0.0414   -1.7222   -4.4920 H   0  0  0  0  0  0  0  0  0  0  0  0
    0.1100   -0.1186   -6.3571 H   0  0  0  0  0  0  0  0  0  0  0  0
    2.0026    1.4796   -6.4834 H   0  0  0  0  0  0  0  0  0  0  0  0
    3.7538    1.4662   -4.7267 H   0  0  0  0  0  0  0  0  0  0  0  0
    3.6209   -0.1327   -2.8516 H   0  0  0  0  0  0  0  0  0  0  0  0
   -1.0624    1.8354   -0.7480 H   0  0  0  0  0  0  0  0  0  0  0  0
    0.2675    0.0509    3.6774 H   0  0  0  0  0  0  0  0  0  0  0  0
    0.5535   -1.3384    1.6967 H   0  0  0  0  0  0  0  0  0  0  0  0
   -2.7776    3.1174    3.4401 H   0  0  0  0  0  0  0  0  0  0  0  0
   -3.0436    4.4876    5.4670 H   0  0  0  0  0  0  0  0  0  0  0  0
   -1.1524    4.7663    7.0495 H   0  0  0  0  0  0  0  0  0  0  0  0
    1.0210    3.6648    6.5806 H   0  0  0  0  0  0  0  0  0  0  0  0
    1.3111    2.3003    4.5528 H   0  0  0  0  0  0  0  0  0  0  0  0
  1  2  1  0
  2  3  1  0
  2  4  1  0
  4  5  1  0
  5  6  1  0
  6  7  1  0
  7  8  2  0
  8  9  1  0
  9 10  2  0
 10 11  1  0
 11 12  2  0
  4 13  1  0
 13 14  2  0
 14 15  1  0
 15 16  1  0
 15 17  2  0
 17 18  1  0
 18 19  2  0
 17 20  1  0
 20 21  2  0
 21 22  1  0
 22 23  2  0
 23 24  1  0
 24 25  2  0
 12  7  1  0
 19 13  1  0
 25 20  1  0
  1 26  1  0
  1 27  1  0
  1 28  1  0
  2 29  1  6
  3 30  1  0
  3 31  1  0
  4 32  1  6
  5 33  1  0
  5 34  1  0
  6 35  1  0
  6 36  1  0
  8 37  1  0
  9 38  1  0
 10 39  1  0
 11 40  1  0
 12 41  1  0
 14 42  1  0
 18 43  1  0
 19 44  1  0
 21 45  1  0
 22 46  1  0
 23 47  1  0
 24 48  1  0
 25 49  1  0
M  END
