
     RDKit          3D

 22 21  0  0  0  0  0  0  0  0999 V2000
    0.8214    2.6263   -0.6245 C   0  0  0  0  0  0  0  0  0  0  0  0
    0.5768    1.1810   -0.1766 C   0  0  0  0  0  0  0  0  0  0  0  0
    1.8050    0.6638    0.5803 C   0  0  0  0  0  0  0  0  0  0  0  0
   -0.7345    0.9807    0.6374 C   0  0  2  0  0  0  0  0  0  0  0  0
   -1.9005    1.2987   -0.1853 N   0  0  0  0  0  0  0  0  0  0  0  0
   -0.7625    1.7505    1.9760 C   0  0  0  0  0  0  0  0  0  0  0  0
   -2.0321    1.5428    2.8037 C   0  0  0  0  0  0  0  0  0  0  0  0
   -3.3064    2.7194    2.3903 Cl  0  0  0  0  0  0  0  0  0  0  0  0
    0.9766    3.2954    0.2274 H   0  0  0  0  0  0  0  0  0  0  0  0
    1.7171    2.6833   -1.2531 H   0  0  0  0  0  0  0  0  0  0  0  0
   -0.0142    3.0117   -1.2164 H   0  0  0  0  0  0  0  0  0  0  0  0
    0.4938    0.5708   -1.0873 H   0  0  0  0  0  0  0  0  0  0  0  0
    1.6469   -0.3623    0.9278 H   0  0  0  0  0  0  0  0  0  0  0  0
    2.0441    1.2886    1.4465 H   0  0  0  0  0  0  0  0  0  0  0  0
    2.6837    0.6603   -0.0741 H   0  0  0  0  0  0  0  0  0  0  0  0
   -0.8082   -0.0889    0.8738 H   0  0  0  0  0  0  0  0  0  0  0  0
   -1.7862    0.9336   -1.1295 H   0  0  0  0  0  0  0  0  0  0  0  0
   -2.0141    2.3086   -0.2738 H   0  0  0  0  0  0  0  0  0  0  0  0
   -0.5894    2.8217    1.8208 H   0  0  0  0  0  0  0  0  0  0  0  0
    0.0729    1.3890    2.5877 H   0  0  0  0  0  0  0  0  0  0  0  0
   -1.8092    1.7011    3.8634 H   0  0  0  0  0  0  0  0  0  0  0  0
   -2.4386    0.5333    2.6904 H   0  0  0  0  0  0  0  0  0  0  0  0
  1  2  1  0
  2  3  1  0
  2  4  1  0
  4  5  1  0
  4  6  1  0
  6  7  1  0
  7  8  1  0
  1  9  1  0
  1 10  1  0
  1 11  1  0
  2 12  1  0
  3 13  1  0
  3 14  1  0
  3 15  1  0
  4 16  1  1
  5 17  1  0
  5 18  1  0
  6 19  1  0
  6 20  1  0
  7 21  1  0
  7 22  1  0
M  END
