
     RDKit          3D

 30 30  0  0  0  0  0  0  0  0999 V2000
    1.9438   -1.9080   -0.7054 C   0  0  0  0  0  0  0  0  0  0  0  0
    1.7204   -0.4776   -1.1734 C   0  0  0  0  0  0  0  0  0  0  0  0
    0.2979   -0.0044   -0.8537 C   0  0  0  0  0  0  0  0  0  0  0  0
   -0.0136    1.4058   -1.3931 C   0  0  2  0  0  0  0  0  0  0  0  0
    0.7449    2.4440   -0.6816 N   0  0  0  0  0  0  0  0  0  0  0  0
   -1.5283    1.7298   -1.3813 C   0  0  0  0  0  0  0  0  0  0  0  0
   -2.2905    1.8284    0.2908 S   0  0  0  0  0  0  0  0  0  0  0  0
   -2.9054    0.1669    0.4923 C   0  0  0  0  0  0  0  0  0  0  0  0
   -3.8343   -0.3833   -0.3995 C   0  0  0  0  0  0  0  0  0  0  0  0
   -4.3092   -1.6829   -0.2086 C   0  0  0  0  0  0  0  0  0  0  0  0
   -3.8636   -2.4227    0.8801 C   0  0  0  0  0  0  0  0  0  0  0  0
   -4.3193   -3.6686    1.0622 F   0  0  0  0  0  0  0  0  0  0  0  0
   -2.9580   -1.8851    1.7863 C   0  0  0  0  0  0  0  0  0  0  0  0
   -2.4840   -0.5855    1.5961 C   0  0  0  0  0  0  0  0  0  0  0  0
    1.8015   -1.9932    0.3767 H   0  0  0  0  0  0  0  0  0  0  0  0
    2.9634   -2.2288   -0.9407 H   0  0  0  0  0  0  0  0  0  0  0  0
    1.2493   -2.5956   -1.1988 H   0  0  0  0  0  0  0  0  0  0  0  0
    2.4599    0.1680   -0.6884 H   0  0  0  0  0  0  0  0  0  0  0  0
    1.8969   -0.4229   -2.2538 H   0  0  0  0  0  0  0  0  0  0  0  0
    0.1544   -0.0384    0.2327 H   0  0  0  0  0  0  0  0  0  0  0  0
   -0.4118   -0.7171   -1.2930 H   0  0  0  0  0  0  0  0  0  0  0  0
    0.3043    1.4423   -2.4428 H   0  0  0  0  0  0  0  0  0  0  0  0
    1.7249    2.1827   -0.6007 H   0  0  0  0  0  0  0  0  0  0  0  0
    0.3864    2.5191    0.2725 H   0  0  0  0  0  0  0  0  0  0  0  0
   -1.6800    2.7133   -1.8424 H   0  0  0  0  0  0  0  0  0  0  0  0
   -2.0668    1.0142   -2.0107 H   0  0  0  0  0  0  0  0  0  0  0  0
   -4.2063    0.1964   -1.2407 H   0  0  0  0  0  0  0  0  0  0  0  0
   -5.0279   -2.1177   -0.8959 H   0  0  0  0  0  0  0  0  0  0  0  0
   -2.6309   -2.4762    2.6356 H   0  0  0  0  0  0  0  0  0  0  0  0
   -1.7813   -0.1665    2.3129 H   0  0  0  0  0  0  0  0  0  0  0  0
  1  2  1  0
  2  3  1  0
  3  4  1  0
  4  5  1  0
  4  6  1  0
  6  7  1  0
  7  8  1  0
  8  9  2  0
  9 10  1  0
 10 11  2  0
 11 12  1  0
 11 13  1  0
 13 14  2  0
 14  8  1  0
  1 15  1  0
  1 16  1  0
  1 17  1  0
  2 18  1  0
  2 19  1  0
  3 20  1  0
  3 21  1  0
  4 22  1  6
  5 23  1  0
  5 24  1  0
  6 25  1  0
  6 26  1  0
  9 27  1  0
 10 28  1  0
 13 29  1  0
 14 30  1  0
M  END
