
     RDKit          3D

 27 26  0  0  0  0  0  0  0  0999 V2000
    0.4712    1.5883    0.0067 C   0  0  0  0  0  0  0  0  0  0  0  0
   -0.6296    0.7069    0.5978 C   0  0  2  0  0  0  0  0  0  0  0  0
   -0.3514   -0.8039    0.4417 C   0  0  0  0  0  0  0  0  0  0  0  0
    0.8268   -1.3266    1.2831 C   0  0  0  0  0  0  0  0  0  0  0  0
    2.2220   -1.2388    0.7239 C   0  0  0  0  0  0  0  0  0  0  0  0
    2.5890   -1.0698   -0.5528 C   0  0  0  0  0  0  0  0  0  0  0  0
   -2.0300    1.1209    0.0708 C   0  0  0  0  0  0  0  0  0  0  0  0
   -2.2484    1.1184   -1.4553 C   0  0  2  0  0  0  0  0  0  0  0  0
   -3.4743    1.8970   -1.7407 N   0  0  0  0  0  0  0  0  0  0  0  0
   -2.3605   -0.2544   -2.0021 C   0  0  0  0  0  0  0  0  0  0  0  0
   -2.4801   -1.3201   -2.4476 N   0  0  0  0  0  0  0  0  0  0  0  0
    1.4006    1.4897    0.5752 H   0  0  0  0  0  0  0  0  0  0  0  0
    0.6802    1.3317   -1.0362 H   0  0  0  0  0  0  0  0  0  0  0  0
    0.1867    2.6455    0.0454 H   0  0  0  0  0  0  0  0  0  0  0  0
   -0.6552    0.9165    1.6768 H   0  0  0  0  0  0  0  0  0  0  0  0
   -0.2173   -1.0730   -0.6091 H   0  0  0  0  0  0  0  0  0  0  0  0
   -1.2461   -1.3417    0.7834 H   0  0  0  0  0  0  0  0  0  0  0  0
    0.8182   -0.8212    2.2570 H   0  0  0  0  0  0  0  0  0  0  0  0
    0.6458   -2.3884    1.4961 H   0  0  0  0  0  0  0  0  0  0  0  0
    3.0151   -1.3524    1.4630 H   0  0  0  0  0  0  0  0  0  0  0  0
    1.8750   -0.9761   -1.3628 H   0  0  0  0  0  0  0  0  0  0  0  0
    3.6410   -1.0371   -0.8217 H   0  0  0  0  0  0  0  0  0  0  0  0
   -2.7896    0.4933    0.5581 H   0  0  0  0  0  0  0  0  0  0  0  0
   -2.2086    2.1412    0.4418 H   0  0  0  0  0  0  0  0  0  0  0  0
   -1.4235    1.6374   -1.9530 H   0  0  0  0  0  0  0  0  0  0  0  0
   -3.6480    1.8850   -2.7467 H   0  0  0  0  0  0  0  0  0  0  0  0
   -4.2757    1.4281   -1.3162 H   0  0  0  0  0  0  0  0  0  0  0  0
  1  2  1  0
  2  3  1  0
  3  4  1  0
  4  5  1  0
  5  6  2  3
  2  7  1  0
  7  8  1  0
  8  9  1  0
  8 10  1  0
 10 11  3  0
  1 12  1  0
  1 13  1  0
  1 14  1  0
  2 15  1  1
  3 16  1  0
  3 17  1  0
  4 18  1  0
  4 19  1  0
  5 20  1  0
  6 21  1  0
  6 22  1  0
  7 23  1  0
  7 24  1  0
  8 25  1  6
  9 26  1  0
  9 27  1  0
M  END
