
     RDKit          3D

 21 20  0  0  0  0  0  0  0  0999 V2000
    1.6464   -1.3525   -2.1785 C   0  0  0  0  0  0  0  0  0  0  0  0
    0.5512   -0.5781   -1.4365 C   0  0  0  0  0  0  0  0  0  0  0  0
   -0.8060   -0.8549   -2.0945 C   0  0  0  0  0  0  0  0  0  0  0  0
    0.5800   -0.8716    0.0848 C   0  0  2  0  0  0  0  0  0  0  0  0
    0.1746   -2.2462    0.4326 N   0  0  0  0  0  0  0  0  0  0  0  0
   -0.2607    0.1325    0.8848 C   0  0  0  0  0  0  0  0  0  0  0  0
   -0.7409    1.1766    0.4654 O   0  0  0  0  0  0  0  0  0  0  0  0
   -0.4795   -0.1520    2.3236 C   0  0  0  0  0  0  0  0  0  0  0  0
    0.6019   -0.0695    3.0581 N   0  0  0  0  0  4  0  0  0  0  0  0
    1.5438    0.0004    3.6972 N   0  0  0  0  0  2  0  0  0  0  0  0
    1.6844   -1.0508   -3.2309 H   0  0  0  0  0  0  0  0  0  0  0  0
    2.6300   -1.1519   -1.7409 H   0  0  0  0  0  0  0  0  0  0  0  0
    1.4728   -2.4329   -2.1490 H   0  0  0  0  0  0  0  0  0  0  0  0
    0.7649    0.4904   -1.5756 H   0  0  0  0  0  0  0  0  0  0  0  0
   -1.6171   -0.3296   -1.5816 H   0  0  0  0  0  0  0  0  0  0  0  0
   -1.0437   -1.9236   -2.1044 H   0  0  0  0  0  0  0  0  0  0  0  0
   -0.7999   -0.5125   -3.1353 H   0  0  0  0  0  0  0  0  0  0  0  0
    1.6102   -0.7314    0.4370 H   0  0  0  0  0  0  0  0  0  0  0  0
   -0.7530   -2.4401    0.0533 H   0  0  0  0  0  0  0  0  0  0  0  0
    0.8001   -2.9087   -0.0271 H   0  0  0  0  0  0  0  0  0  0  0  0
   -1.4866   -0.3987    2.6730 H   0  0  0  0  0  0  0  0  0  0  0  0
  1  2  1  0
  2  3  1  0
  2  4  1  0
  4  5  1  0
  4  6  1  0
  6  7  2  0
  6  8  1  0
  8  9  2  0
  9 10  2  0
  1 11  1  0
  1 12  1  0
  1 13  1  0
  2 14  1  0
  3 15  1  0
  3 16  1  0
  3 17  1  0
  4 18  1  1
  5 19  1  0
  5 20  1  0
  8 21  1  0
M  CHG  2   9   1  10  -1
M  END
