
     RDKit          3D

 24 24  0  0  0  0  0  0  0  0999 V2000
   -0.5052   -3.3240   -0.0335 C   0  0  0  0  0  0  0  0  0  0  0  0
   -0.2107   -1.8414    0.1949 C   0  0  2  0  0  0  0  0  0  0  0  0
    0.5202   -1.6830    1.4598 N   0  0  0  0  0  0  0  0  0  0  0  0
   -1.5212   -1.0256    0.2027 C   0  0  0  0  0  0  0  0  0  0  0  0
   -1.2962    0.4704    0.1130 C   0  0  0  0  0  0  0  0  0  0  0  0
   -1.2472    1.2213    1.3033 C   0  0  0  0  0  0  0  0  0  0  0  0
   -1.0235    2.6031    1.2769 C   0  0  0  0  0  0  0  0  0  0  0  0
   -0.8447    3.2514    0.0530 C   0  0  0  0  0  0  0  0  0  0  0  0
   -0.8836    2.5192   -1.1355 C   0  0  0  0  0  0  0  0  0  0  0  0
   -1.1039    1.1379   -1.1078 C   0  0  0  0  0  0  0  0  0  0  0  0
   -1.1279    0.3035   -2.6205 Cl  0  0  0  0  0  0  0  0  0  0  0  0
   -0.9764    3.3484    2.5011 C   0  0  0  0  0  0  0  0  0  0  0  0
   -0.9440    3.9565    3.4891 N   0  0  0  0  0  0  0  0  0  0  0  0
   -1.1527   -3.7315    0.7511 H   0  0  0  0  0  0  0  0  0  0  0  0
   -1.0069   -3.4736   -0.9957 H   0  0  0  0  0  0  0  0  0  0  0  0
    0.4197   -3.9113   -0.0490 H   0  0  0  0  0  0  0  0  0  0  0  0
    0.4395   -1.4910   -0.6149 H   0  0  0  0  0  0  0  0  0  0  0  0
    1.4015   -2.1942    1.4061 H   0  0  0  0  0  0  0  0  0  0  0  0
   -0.0040   -2.1154    2.2201 H   0  0  0  0  0  0  0  0  0  0  0  0
   -2.1022   -1.2542    1.1073 H   0  0  0  0  0  0  0  0  0  0  0  0
   -2.1705   -1.3403   -0.6239 H   0  0  0  0  0  0  0  0  0  0  0  0
   -1.3698    0.7154    2.2609 H   0  0  0  0  0  0  0  0  0  0  0  0
   -0.6692    4.3249    0.0150 H   0  0  0  0  0  0  0  0  0  0  0  0
   -0.7372    3.0319   -2.0836 H   0  0  0  0  0  0  0  0  0  0  0  0
  1  2  1  0
  2  3  1  0
  2  4  1  0
  4  5  1  0
  5  6  2  0
  6  7  1  0
  7  8  2  0
  8  9  1  0
  9 10  2  0
 10 11  1  0
  7 12  1  0
 12 13  3  0
 10  5  1  0
  1 14  1  0
  1 15  1  0
  1 16  1  0
  2 17  1  6
  3 18  1  0
  3 19  1  0
  4 20  1  0
  4 21  1  0
  6 22  1  0
  8 23  1  0
  9 24  1  0
M  END
