
     RDKit          3D

 25 25  0  0  0  0  0  0  0  0999 V2000
    1.2963   -2.9191   -1.8535 C   0  0  0  0  0  0  0  0  0  0  0  0
    2.4247   -2.2669   -1.0556 C   0  0  1  0  0  0  0  0  0  0  0  0
    2.7582   -0.9745   -1.6656 N   0  0  0  0  0  0  0  0  0  0  0  0
    2.1168   -2.1691    0.4577 C   0  0  0  0  0  0  0  0  0  0  0  0
    0.9681   -1.2675    0.8488 C   0  0  0  0  0  0  0  0  0  0  0  0
    1.1866    0.0859    1.1324 C   0  0  0  0  0  0  0  0  0  0  0  0
    0.1206    0.9198    1.4842 C   0  0  0  0  0  0  0  0  0  0  0  0
   -1.1740    0.4124    1.6048 C   0  0  0  0  0  0  0  0  0  0  0  0
   -2.2515    1.2742    1.8393 N   0  0  0  0  0  0  0  0  0  0  0  0
   -1.4001   -0.9234    1.2695 C   0  0  0  0  0  0  0  0  0  0  0  0
   -0.3388   -1.7634    0.9177 C   0  0  0  0  0  0  0  0  0  0  0  0
    1.0264   -3.8889   -1.4220 H   0  0  0  0  0  0  0  0  0  0  0  0
    0.3964   -2.2958   -1.8818 H   0  0  0  0  0  0  0  0  0  0  0  0
    1.6070   -3.0948   -2.8899 H   0  0  0  0  0  0  0  0  0  0  0  0
    3.3088   -2.9079   -1.1603 H   0  0  0  0  0  0  0  0  0  0  0  0
    3.4711   -0.5075   -1.1077 H   0  0  0  0  0  0  0  0  0  0  0  0
    1.9360   -0.3688   -1.6265 H   0  0  0  0  0  0  0  0  0  0  0  0
    3.0194   -1.8276    0.9833 H   0  0  0  0  0  0  0  0  0  0  0  0
    1.9243   -3.1762    0.8515 H   0  0  0  0  0  0  0  0  0  0  0  0
    2.1871    0.5075    1.0716 H   0  0  0  0  0  0  0  0  0  0  0  0
    0.3132    1.9736    1.6663 H   0  0  0  0  0  0  0  0  0  0  0  0
   -2.0034    2.1044    2.3680 H   0  0  0  0  0  0  0  0  0  0  0  0
   -3.0721    0.8093    2.2144 H   0  0  0  0  0  0  0  0  0  0  0  0
   -2.4093   -1.3263    1.2803 H   0  0  0  0  0  0  0  0  0  0  0  0
   -0.5465   -2.8048    0.6830 H   0  0  0  0  0  0  0  0  0  0  0  0
  1  2  1  0
  2  3  1  0
  2  4  1  0
  4  5  1  0
  5  6  2  0
  6  7  1  0
  7  8  2  0
  8  9  1  0
  8 10  1  0
 10 11  2  0
 11  5  1  0
  1 12  1  0
  1 13  1  0
  1 14  1  0
  2 15  1  1
  3 16  1  0
  3 17  1  0
  4 18  1  0
  4 19  1  0
  6 20  1  0
  7 21  1  0
  9 22  1  0
  9 23  1  0
 10 24  1  0
 11 25  1  0
M  END
