
     RDKit          3D

 26 25  0  0  0  0  0  0  0  0999 V2000
    0.2953    3.2105    1.9168 C   0  0  0  0  0  0  0  0  0  0  0  0
    1.0996    1.9198    1.9324 C   0  0  0  0  0  0  0  0  0  0  0  0
    0.2758    0.6784    1.5791 C   0  0  0  0  0  0  0  0  0  0  0  0
   -0.2230    0.6749    0.1276 C   0  0  0  0  0  0  0  0  0  0  0  0
   -1.0260   -0.5928   -0.2333 C   0  0  2  0  0  0  0  0  0  0  0  0
   -0.1711   -1.7818   -0.1044 N   0  0  0  0  0  0  0  0  0  0  0  0
   -1.5930   -0.5158   -1.6579 C   0  0  0  0  0  0  0  0  0  0  0  0
   -2.6429    0.5626   -1.8035 C   0  0  0  0  0  0  0  0  0  0  0  0
   -3.8136    0.3421   -1.1416 N   0  0  0  0  0  0  0  0  0  0  0  0
   -2.4761    1.5779   -2.4690 O   0  0  0  0  0  0  0  0  0  0  0  0
    0.9110    4.0403    2.2788 H   0  0  0  0  0  0  0  0  0  0  0  0
   -0.0386    3.4643    0.9067 H   0  0  0  0  0  0  0  0  0  0  0  0
   -0.5839    3.1340    2.5643 H   0  0  0  0  0  0  0  0  0  0  0  0
    1.5161    1.7836    2.9377 H   0  0  0  0  0  0  0  0  0  0  0  0
    1.9503    2.0110    1.2471 H   0  0  0  0  0  0  0  0  0  0  0  0
   -0.5783    0.5981    2.2625 H   0  0  0  0  0  0  0  0  0  0  0  0
    0.9064   -0.2009    1.7553 H   0  0  0  0  0  0  0  0  0  0  0  0
    0.6321    0.7822   -0.5525 H   0  0  0  0  0  0  0  0  0  0  0  0
   -0.8599    1.5525   -0.0280 H   0  0  0  0  0  0  0  0  0  0  0  0
   -1.8491   -0.6984    0.4833 H   0  0  0  0  0  0  0  0  0  0  0  0
    0.6413   -1.6928   -0.7152 H   0  0  0  0  0  0  0  0  0  0  0  0
   -0.6702   -2.6153   -0.4111 H   0  0  0  0  0  0  0  0  0  0  0  0
   -2.0603   -1.4679   -1.9412 H   0  0  0  0  0  0  0  0  0  0  0  0
   -0.7968   -0.3248   -2.3880 H   0  0  0  0  0  0  0  0  0  0  0  0
   -4.0581   -0.5562   -0.7489 H   0  0  0  0  0  0  0  0  0  0  0  0
   -4.5537    1.0184   -1.2831 H   0  0  0  0  0  0  0  0  0  0  0  0
  1  2  1  0
  2  3  1  0
  3  4  1  0
  4  5  1  0
  5  6  1  0
  5  7  1  0
  7  8  1  0
  8  9  1  0
  8 10  2  0
  1 11  1  0
  1 12  1  0
  1 13  1  0
  2 14  1  0
  2 15  1  0
  3 16  1  0
  3 17  1  0
  4 18  1  0
  4 19  1  0
  5 20  1  1
  6 21  1  0
  6 22  1  0
  7 23  1  0
  7 24  1  0
  9 25  1  0
  9 26  1  0
M  END
