
     RDKit          3D

 23 22  0  0  0  0  0  0  0  0999 V2000
   -0.1437   -1.3805   -1.3979 N   0  0  0  0  0  0  0  0  0  0  0  0
    0.7944   -0.2879   -1.6112 C   0  0  0  0  0  0  0  0  0  0  0  0
    0.5481    0.8832   -0.6577 C   0  0  0  0  0  0  0  0  0  0  0  0
   -0.6959    1.7266   -0.9679 C   0  0  0  0  0  0  0  0  0  0  0  0
   -2.0584    1.0321   -0.8467 C   0  0  0  0  0  0  0  0  0  0  0  0
   -2.3619    0.4103    0.5257 C   0  0  1  0  0  0  0  0  0  0  0  0
   -2.5010    1.4388    1.5837 N   0  0  0  0  0  0  0  0  0  0  0  0
   -3.6173   -0.4896    0.4509 C   0  0  0  0  0  0  0  0  0  0  0  0
   -5.1031    0.4003    0.2002 Cl  0  0  0  0  0  0  0  0  0  0  0  0
   -3.5396   -1.7142    0.5412 O   0  0  0  0  0  0  0  0  0  0  0  0
    0.0482   -2.1281   -2.0655 H   0  0  0  0  0  0  0  0  0  0  0  0
    0.0071   -1.7939   -0.4768 H   0  0  0  0  0  0  0  0  0  0  0  0
    0.7244    0.0547   -2.6492 H   0  0  0  0  0  0  0  0  0  0  0  0
    1.8118   -0.6662   -1.4618 H   0  0  0  0  0  0  0  0  0  0  0  0
    1.4174    1.5505   -0.7267 H   0  0  0  0  0  0  0  0  0  0  0  0
    0.5276    0.5336    0.3809 H   0  0  0  0  0  0  0  0  0  0  0  0
   -0.6848    2.6048   -0.3106 H   0  0  0  0  0  0  0  0  0  0  0  0
   -0.6046    2.1205   -1.9883 H   0  0  0  0  0  0  0  0  0  0  0  0
   -2.8289    1.7766   -1.0898 H   0  0  0  0  0  0  0  0  0  0  0  0
   -2.1547    0.2705   -1.6292 H   0  0  0  0  0  0  0  0  0  0  0  0
   -1.5457   -0.2517    0.8325 H   0  0  0  0  0  0  0  0  0  0  0  0
   -3.2242    2.1070    1.3128 H   0  0  0  0  0  0  0  0  0  0  0  0
   -1.6355    1.9723    1.6518 H   0  0  0  0  0  0  0  0  0  0  0  0
  1  2  1  0
  2  3  1  0
  3  4  1  0
  4  5  1  0
  5  6  1  0
  6  7  1  0
  6  8  1  0
  8  9  1  0
  8 10  2  0
  1 11  1  0
  1 12  1  0
  2 13  1  0
  2 14  1  0
  3 15  1  0
  3 16  1  0
  4 17  1  0
  4 18  1  0
  5 19  1  0
  5 20  1  0
  6 21  1  1
  7 22  1  0
  7 23  1  0
M  END
