
     RDKit          3D

 27 27  0  0  0  0  0  0  0  0999 V2000
   -3.6823    2.0025    0.8392 N   0  0  0  0  0  0  0  0  0  0  0  0
   -2.4631    1.3922    0.2687 C   0  0  1  0  0  0  0  0  0  0  0  0
   -1.5394    0.8656    1.3810 C   0  0  0  0  0  0  0  0  0  0  0  0
   -0.1269    0.6191    0.9035 C   0  0  0  0  0  0  0  0  0  0  0  0
    0.2144   -0.5937    0.2895 C   0  0  0  0  0  0  0  0  0  0  0  0
    1.5070   -0.8022   -0.2049 C   0  0  0  0  0  0  0  0  0  0  0  0
    2.4758    0.1956   -0.0722 C   0  0  0  0  0  0  0  0  0  0  0  0
    2.1474    1.4004    0.5502 C   0  0  0  0  0  0  0  0  0  0  0  0
    0.8530    1.6134    1.0301 C   0  0  0  0  0  0  0  0  0  0  0  0
    1.8161   -2.0739   -0.9125 C   0  0  0  0  0  0  0  0  0  0  0  0
    0.8528   -2.6897   -1.6549 N   0  0  0  0  0  0  0  0  0  0  0  0
    2.9821   -2.6356   -0.8688 N   0  0  0  0  0  0  0  0  0  0  0  0
   -2.8932    0.2512   -0.6495 C   0  0  0  0  0  0  0  0  0  0  0  0
   -2.3140   -0.0510   -1.6910 O   0  0  0  0  0  0  0  0  0  0  0  0
   -3.4289    2.8751    1.3046 H   0  0  0  0  0  0  0  0  0  0  0  0
   -4.0716    1.4051    1.5688 H   0  0  0  0  0  0  0  0  0  0  0  0
   -1.9594    2.1463   -0.3470 H   0  0  0  0  0  0  0  0  0  0  0  0
   -1.4975    1.5883    2.2073 H   0  0  0  0  0  0  0  0  0  0  0  0
   -1.9391   -0.0604    1.8159 H   0  0  0  0  0  0  0  0  0  0  0  0
   -0.5288   -1.3815    0.1842 H   0  0  0  0  0  0  0  0  0  0  0  0
    3.4743    0.0610   -0.4786 H   0  0  0  0  0  0  0  0  0  0  0  0
    2.8968    2.1826    0.6454 H   0  0  0  0  0  0  0  0  0  0  0  0
    0.6149    2.5673    1.4966 H   0  0  0  0  0  0  0  0  0  0  0  0
    1.2558   -3.3832   -2.2768 H   0  0  0  0  0  0  0  0  0  0  0  0
    0.1953   -2.0754   -2.1268 H   0  0  0  0  0  0  0  0  0  0  0  0
    3.6165   -2.1210   -0.2524 H   0  0  0  0  0  0  0  0  0  0  0  0
   -3.7295   -0.3694   -0.2827 H   0  0  0  0  0  0  0  0  0  0  0  0
  1  2  1  0
  2  3  1  0
  3  4  1  0
  4  5  2  0
  5  6  1  0
  6  7  2  0
  7  8  1  0
  8  9  2  0
  6 10  1  0
 10 11  1  0
 10 12  2  3
  2 13  1  0
 13 14  2  0
  9  4  1  0
  1 15  1  0
  1 16  1  0
  2 17  1  6
  3 18  1  0
  3 19  1  0
  5 20  1  0
  7 21  1  0
  8 22  1  0
  9 23  1  0
 11 24  1  0
 11 25  1  0
 12 26  1  0
 13 27  1  0
M  END
