
     RDKit          3D

 52 51  0  0  0  0  0  0  0  0999 V2000
    4.7997   -1.8296   -1.0974 C   0  0  0  0  0  0  0  0  0  0  0  0
    3.4853   -1.0490   -1.1532 C   0  0  0  0  0  0  0  0  0  0  0  0
    2.3047   -1.9631   -0.8436 C   0  0  0  0  0  0  0  0  0  0  0  0
    3.5085    0.2609   -0.3322 C   0  0  0  0  0  0  0  0  0  0  0  0
    3.4044    0.2334    1.2024 C   0  0  2  0  0  0  0  0  0  0  0  0
    4.4467   -0.6036    1.8265 N   0  0  0  0  0  0  0  0  0  0  0  0
    2.0168   -0.1674    1.7515 C   0  0  0  0  0  0  0  0  0  0  0  0
    1.8726   -1.1784    2.4454 O   0  0  0  0  0  0  0  0  0  0  0  0
    0.8670    0.7867    1.4649 C   0  0  0  0  0  0  0  0  0  0  0  0
   -0.4989    0.2913    1.9424 C   0  0  0  0  0  0  0  0  0  0  0  0
   -1.0203   -0.8860    1.1108 C   0  0  0  0  0  0  0  0  0  0  0  0
   -2.4824   -1.2305    1.4016 C   0  0  0  0  0  0  0  0  0  0  0  0
   -3.5239   -0.1900    0.9650 C   0  0  0  0  0  0  0  0  0  0  0  0
   -3.5315    0.1047   -0.5413 C   0  0  0  0  0  0  0  0  0  0  0  0
   -2.7396    1.3650   -0.9039 C   0  0  0  0  0  0  0  0  0  0  0  0
   -2.6812    1.6457   -2.4101 C   0  0  0  0  0  0  0  0  0  0  0  0
   -1.9161    0.6087   -3.2324 C   0  0  0  0  0  0  0  0  0  0  0  0
   -0.4261    0.5746   -2.9559 C   0  0  0  0  0  0  0  0  0  0  0  0
    0.2342   -0.4264   -3.6069 N   0  0  0  0  0  0  0  0  0  0  0  0
    0.1798    1.3561   -2.2341 O   0  0  0  0  0  0  0  0  0  0  0  0
    4.9408   -2.3435   -0.1436 H   0  0  0  0  0  0  0  0  0  0  0  0
    4.8153   -2.5975   -1.8795 H   0  0  0  0  0  0  0  0  0  0  0  0
    5.6571   -1.1705   -1.2673 H   0  0  0  0  0  0  0  0  0  0  0  0
    3.3711   -0.7335   -2.1999 H   0  0  0  0  0  0  0  0  0  0  0  0
    1.3624   -1.4089   -0.8737 H   0  0  0  0  0  0  0  0  0  0  0  0
    2.4034   -2.4391    0.1357 H   0  0  0  0  0  0  0  0  0  0  0  0
    2.2376   -2.7644   -1.5878 H   0  0  0  0  0  0  0  0  0  0  0  0
    4.4313    0.7978   -0.5942 H   0  0  0  0  0  0  0  0  0  0  0  0
    2.7006    0.8944   -0.7186 H   0  0  0  0  0  0  0  0  0  0  0  0
    3.5771    1.2562    1.5622 H   0  0  0  0  0  0  0  0  0  0  0  0
    4.1456   -1.5781    1.7352 H   0  0  0  0  0  0  0  0  0  0  0  0
    4.4078   -0.4540    2.8376 H   0  0  0  0  0  0  0  0  0  0  0  0
    0.8225    0.9882    0.3923 H   0  0  0  0  0  0  0  0  0  0  0  0
    1.0999    1.7272    1.9770 H   0  0  0  0  0  0  0  0  0  0  0  0
   -1.1966    1.1327    1.8773 H   0  0  0  0  0  0  0  0  0  0  0  0
   -0.4524    0.0014    2.9991 H   0  0  0  0  0  0  0  0  0  0  0  0
   -0.8873   -0.6954    0.0414 H   0  0  0  0  0  0  0  0  0  0  0  0
   -0.4159   -1.7735    1.3331 H   0  0  0  0  0  0  0  0  0  0  0  0
   -2.6008   -1.4143    2.4765 H   0  0  0  0  0  0  0  0  0  0  0  0
   -2.7147   -2.1801    0.9028 H   0  0  0  0  0  0  0  0  0  0  0  0
   -4.5079   -0.5986    1.2301 H   0  0  0  0  0  0  0  0  0  0  0  0
   -3.4178    0.7334    1.5444 H   0  0  0  0  0  0  0  0  0  0  0  0
   -3.1679   -0.7695   -1.0902 H   0  0  0  0  0  0  0  0  0  0  0  0
   -4.5709    0.2604   -0.8577 H   0  0  0  0  0  0  0  0  0  0  0  0
   -3.2161    2.2257   -0.4170 H   0  0  0  0  0  0  0  0  0  0  0  0
   -1.7261    1.3171   -0.5018 H   0  0  0  0  0  0  0  0  0  0  0  0
   -2.2226    2.6312   -2.5589 H   0  0  0  0  0  0  0  0  0  0  0  0
   -3.7050    1.7167   -2.7977 H   0  0  0  0  0  0  0  0  0  0  0  0
   -2.3293   -0.3934   -3.0835 H   0  0  0  0  0  0  0  0  0  0  0  0
   -2.0366    0.8528   -4.2952 H   0  0  0  0  0  0  0  0  0  0  0  0
   -0.2170   -1.0539   -4.2575 H   0  0  0  0  0  0  0  0  0  0  0  0
    1.2376   -0.4830   -3.4936 H   0  0  0  0  0  0  0  0  0  0  0  0
  1  2  1  0
  2  3  1  0
  2  4  1  0
  4  5  1  0
  5  6  1  0
  5  7  1  0
  7  8  2  0
  7  9  1  0
  9 10  1  0
 10 11  1  0
 11 12  1  0
 12 13  1  0
 13 14  1  0
 14 15  1  0
 15 16  1  0
 16 17  1  0
 17 18  1  0
 18 19  1  0
 18 20  2  0
  1 21  1  0
  1 22  1  0
  1 23  1  0
  2 24  1  0
  3 25  1  0
  3 26  1  0
  3 27  1  0
  4 28  1  0
  4 29  1  0
  5 30  1  1
  6 31  1  0
  6 32  1  0
  9 33  1  0
  9 34  1  0
 10 35  1  0
 10 36  1  0
 11 37  1  0
 11 38  1  0
 12 39  1  0
 12 40  1  0
 13 41  1  0
 13 42  1  0
 14 43  1  0
 14 44  1  0
 15 45  1  0
 15 46  1  0
 16 47  1  0
 16 48  1  0
 17 49  1  0
 17 50  1  0
 19 51  1  0
 19 52  1  0
M  END
