
     RDKit          3D

 18 17  0  0  0  0  0  0  0  0999 V2000
    1.3697    1.2833    0.0034 C   0  0  0  0  0  0  0  0  0  0  0  0
    2.0421   -0.3091    0.5418 S   0  0  0  0  0  0  0  0  0  0  0  0
    0.5859   -0.9871    1.3944 C   0  0  0  0  0  0  0  0  0  0  0  0
    0.0145   -2.2391    0.7198 C   0  0  0  0  0  0  0  0  0  0  0  0
   -0.9147   -2.0372   -0.4915 C   0  0  1  0  0  0  0  0  0  0  0  0
   -2.0752   -1.1884   -0.1692 N   0  0  0  0  0  0  0  0  0  0  0  0
   -0.1974   -1.5771   -1.7043 C   0  0  0  0  0  0  0  0  0  0  0  0
    0.3446   -1.2080   -2.6632 N   0  0  0  0  0  0  0  0  0  0  0  0
    2.1254    1.8114   -0.5841 H   0  0  0  0  0  0  0  0  0  0  0  0
    1.1148    1.8968    0.8714 H   0  0  0  0  0  0  0  0  0  0  0  0
    0.4826    1.1428   -0.6181 H   0  0  0  0  0  0  0  0  0  0  0  0
    0.9364   -1.2730    2.3928 H   0  0  0  0  0  0  0  0  0  0  0  0
   -0.1763   -0.2176    1.5471 H   0  0  0  0  0  0  0  0  0  0  0  0
   -0.5699   -2.7688    1.4861 H   0  0  0  0  0  0  0  0  0  0  0  0
    0.8293   -2.9257    0.4520 H   0  0  0  0  0  0  0  0  0  0  0  0
   -1.3260   -3.0257   -0.7345 H   0  0  0  0  0  0  0  0  0  0  0  0
   -1.7839   -0.2182   -0.0612 H   0  0  0  0  0  0  0  0  0  0  0  0
   -2.4902   -1.4799    0.7135 H   0  0  0  0  0  0  0  0  0  0  0  0
  1  2  1  0
  2  3  1  0
  3  4  1  0
  4  5  1  0
  5  6  1  0
  5  7  1  0
  7  8  3  0
  1  9  1  0
  1 10  1  0
  1 11  1  0
  3 12  1  0
  3 13  1  0
  4 14  1  0
  4 15  1  0
  5 16  1  6
  6 17  1  0
  6 18  1  0
M  END
