
     RDKit          3D

 39 40  0  0  0  0  0  0  0  0999 V2000
    0.5683    3.3075   -0.4825 N   0  0  0  0  0  0  0  0  0  0  0  0
    0.4135    2.6632    0.8509 C   0  0  1  0  0  0  0  0  0  0  0  0
   -0.7218    3.3354    1.6554 C   0  0  0  0  0  0  0  0  0  0  0  0
   -2.1325    2.8609    1.3690 C   0  0  0  0  0  0  0  0  0  0  0  0
   -2.9581    2.4478    2.4298 C   0  0  0  0  0  0  0  0  0  0  0  0
   -4.2521    1.9799    2.1882 C   0  0  0  0  0  0  0  0  0  0  0  0
   -4.7423    1.9301    0.8853 C   0  0  0  0  0  0  0  0  0  0  0  0
   -3.9438    2.3598   -0.1727 C   0  0  0  0  0  0  0  0  0  0  0  0
   -2.6498    2.8293    0.0678 C   0  0  0  0  0  0  0  0  0  0  0  0
    0.2455    1.1357    0.6914 C   0  0  0  0  0  0  0  0  0  0  0  0
    0.2552    0.5645   -0.3969 O   0  0  0  0  0  0  0  0  0  0  0  0
    0.1480    0.2232    2.2043 S   0  0  0  0  0  0  0  0  0  0  0  0
   -0.1265   -1.4305    1.5008 C   0  0  0  0  0  0  0  0  0  0  0  0
    1.1375   -2.0024    0.8768 C   0  0  0  0  0  0  0  0  0  0  0  0
    2.2699   -1.6990    1.2599 O   0  0  0  0  0  0  0  0  0  0  0  0
    1.0017   -3.0387   -0.1848 C   0  0  0  0  0  0  0  0  0  0  0  0
   -0.1186   -3.4933   -0.7573 C   0  0  0  0  0  0  0  0  0  0  0  0
    0.1756   -4.5197   -1.8015 C   0  0  0  0  0  0  0  0  0  0  0  0
    1.6311   -4.8838   -1.5216 C   0  0  0  0  0  0  0  0  0  0  0  0
    2.2166   -3.7050   -0.7437 C   0  0  0  0  0  0  0  0  0  0  0  0
    1.0573    2.6515   -1.0991 H   0  0  0  0  0  0  0  0  0  0  0  0
    1.1707    4.1248   -0.3977 H   0  0  0  0  0  0  0  0  0  0  0  0
    1.3644    2.8203    1.3753 H   0  0  0  0  0  0  0  0  0  0  0  0
   -0.5058    3.1766    2.7227 H   0  0  0  0  0  0  0  0  0  0  0  0
   -0.6919    4.4247    1.5190 H   0  0  0  0  0  0  0  0  0  0  0  0
   -2.5974    2.4798    3.4553 H   0  0  0  0  0  0  0  0  0  0  0  0
   -4.8732    1.6518    3.0166 H   0  0  0  0  0  0  0  0  0  0  0  0
   -5.7497    1.5626    0.6975 H   0  0  0  0  0  0  0  0  0  0  0  0
   -4.3291    2.3362   -1.1915 H   0  0  0  0  0  0  0  0  0  0  0  0
   -2.0467    3.1622   -0.7771 H   0  0  0  0  0  0  0  0  0  0  0  0
   -0.4274   -2.0987    2.3107 H   0  0  0  0  0  0  0  0  0  0  0  0
   -0.9452   -1.3704    0.7779 H   0  0  0  0  0  0  0  0  0  0  0  0
   -1.1244   -3.1655   -0.5482 H   0  0  0  0  0  0  0  0  0  0  0  0
    0.0506   -4.0907   -2.8022 H   0  0  0  0  0  0  0  0  0  0  0  0
   -0.4724   -5.3972   -1.7068 H   0  0  0  0  0  0  0  0  0  0  0  0
    1.6720   -5.7923   -0.9076 H   0  0  0  0  0  0  0  0  0  0  0  0
    2.1887   -5.0864   -2.4428 H   0  0  0  0  0  0  0  0  0  0  0  0
    2.7549   -3.0224   -1.4081 H   0  0  0  0  0  0  0  0  0  0  0  0
    2.8993   -4.0586    0.0354 H   0  0  0  0  0  0  0  0  0  0  0  0
  1  2  1  0
  2  3  1  0
  3  4  1  0
  4  5  2  0
  5  6  1  0
  6  7  2  0
  7  8  1  0
  8  9  2  0
  2 10  1  0
 10 11  2  0
 10 12  1  0
 12 13  1  0
 13 14  1  0
 14 15  2  0
 14 16  1  0
 16 17  2  0
 17 18  1  0
 18 19  1  0
 19 20  1  0
  9  4  1  0
 20 16  1  0
  1 21  1  0
  1 22  1  0
  2 23  1  1
  3 24  1  0
  3 25  1  0
  5 26  1  0
  6 27  1  0
  7 28  1  0
  8 29  1  0
  9 30  1  0
 13 31  1  0
 13 32  1  0
 17 33  1  0
 18 34  1  0
 18 35  1  0
 19 36  1  0
 19 37  1  0
 20 38  1  0
 20 39  1  0
M  END
