
     RDKit          3D

 22 21  0  0  0  0  0  0  0  0999 V2000
    0.0665    1.9639    2.2232 C   0  0  0  0  0  0  0  0  0  0  0  0
   -0.8166    0.7903    3.2843 S   0  0  0  0  0  0  0  0  0  0  0  0
   -0.2392   -0.7779    2.5551 C   0  0  0  0  0  0  0  0  0  0  0  0
   -0.9747   -1.1002    1.2518 C   0  0  0  0  0  0  0  0  0  0  0  0
   -0.4638   -2.3602    0.5381 C   0  0  2  0  0  0  0  0  0  0  0  0
   -0.6153   -3.5667    1.3812 N   0  0  0  0  0  0  0  0  0  0  0  0
    0.9908   -2.1854    0.0587 C   0  0  0  0  0  0  0  0  0  0  0  0
    1.8724   -2.9531    0.4687 O   0  0  0  0  0  0  0  0  0  0  0  0
    1.5280   -0.9030   -1.1123 S   0  0  0  0  0  6  0  0  0  0  0  0
    3.3425   -1.4217   -1.8946 Cl  0  0  0  0  0  0  0  0  0  0  0  0
    1.7471    0.2974   -0.3286 O   0  0  0  0  0  0  0  0  0  0  0  0
    0.5862   -0.9481   -2.2134 O   0  0  0  0  0  0  0  0  0  0  0  0
   -0.2926    1.9032    1.1935 H   0  0  0  0  0  0  0  0  0  0  0  0
   -0.1142    2.9783    2.5889 H   0  0  0  0  0  0  0  0  0  0  0  0
    1.1422    1.7729    2.2546 H   0  0  0  0  0  0  0  0  0  0  0  0
    0.8439   -0.7231    2.4096 H   0  0  0  0  0  0  0  0  0  0  0  0
   -0.4287   -1.5609    3.2962 H   0  0  0  0  0  0  0  0  0  0  0  0
   -2.0449   -1.2274    1.4644 H   0  0  0  0  0  0  0  0  0  0  0  0
   -0.8993   -0.2555    0.5574 H   0  0  0  0  0  0  0  0  0  0  0  0
   -1.0682   -2.5174   -0.3629 H   0  0  0  0  0  0  0  0  0  0  0  0
    0.0927   -3.5573    2.1207 H   0  0  0  0  0  0  0  0  0  0  0  0
   -0.3745   -4.3933    0.8287 H   0  0  0  0  0  0  0  0  0  0  0  0
  1  2  1  0
  2  3  1  0
  3  4  1  0
  4  5  1  0
  5  6  1  0
  5  7  1  0
  7  8  2  0
  7  9  1  0
  9 10  1  0
  9 11  2  0
  9 12  2  0
  1 13  1  0
  1 14  1  0
  1 15  1  0
  3 16  1  0
  3 17  1  0
  4 18  1  0
  4 19  1  0
  5 20  1  6
  6 21  1  0
  6 22  1  0
M  END
