
     RDKit          3D

 58 57  0  0  0  0  0  0  0  0999 V2000
   -2.2943   -0.6732   -6.1336 C   0  0  0  0  0  0  0  0  0  0  0  0
   -3.0170   -1.4441   -5.0304 C   0  0  1  0  0  0  0  0  0  0  0  0
   -4.0718   -2.2564   -5.6478 N   0  0  0  0  0  0  0  0  0  0  0  0
   -2.0807   -2.3724   -4.2430 C   0  0  0  0  0  0  0  0  0  0  0  0
   -0.9474   -1.6892   -3.4653 C   0  0  0  0  0  0  0  0  0  0  0  0
   -1.4140   -0.8147   -2.2950 C   0  0  0  0  0  0  0  0  0  0  0  0
   -1.4680    0.6764   -2.6394 C   0  0  0  0  0  0  0  0  0  0  0  0
   -1.9800    1.5475   -1.4847 C   0  0  0  0  0  0  0  0  0  0  0  0
   -1.0901    1.5777   -0.2361 C   0  0  0  0  0  0  0  0  0  0  0  0
    0.2679    2.1640   -0.5029 C   0  0  0  0  0  0  0  0  0  0  0  0
    1.4672    1.5843   -0.3328 C   0  0  0  0  0  0  0  0  0  0  0  0
    1.7609    0.1946    0.1565 C   0  0  0  0  0  0  0  0  0  0  0  0
    2.5633    0.2268    1.4605 C   0  0  0  0  0  0  0  0  0  0  0  0
    2.8636   -1.1907    1.9585 C   0  0  0  0  0  0  0  0  0  0  0  0
    3.6590   -1.2082    3.2684 C   0  0  0  0  0  0  0  0  0  0  0  0
    2.8090   -1.4084    4.5287 C   0  0  0  0  0  0  0  0  0  0  0  0
    1.8150   -0.2795    4.8024 C   0  0  0  0  0  0  0  0  0  0  0  0
    1.1015   -0.4783    6.1434 C   0  0  0  0  0  0  0  0  0  0  0  0
    0.1123    0.6544    6.4154 C   0  0  0  0  0  0  0  0  0  0  0  0
   -0.5604    0.4429    7.6917 N   0  0  0  0  0  0  0  0  0  0  0  0
   -2.9989   -0.0616   -6.7096 H   0  0  0  0  0  0  0  0  0  0  0  0
   -1.5426    0.0064   -5.7199 H   0  0  0  0  0  0  0  0  0  0  0  0
   -1.7872   -1.3498   -6.8313 H   0  0  0  0  0  0  0  0  0  0  0  0
   -3.5009   -0.7376   -4.3488 H   0  0  0  0  0  0  0  0  0  0  0  0
   -4.7323   -1.6497   -6.1311 H   0  0  0  0  0  0  0  0  0  0  0  0
   -4.6018   -2.7360   -4.9215 H   0  0  0  0  0  0  0  0  0  0  0  0
   -2.6714   -2.9677   -3.5334 H   0  0  0  0  0  0  0  0  0  0  0  0
   -1.6242   -3.0941   -4.9348 H   0  0  0  0  0  0  0  0  0  0  0  0
   -0.2880   -1.1307   -4.1385 H   0  0  0  0  0  0  0  0  0  0  0  0
   -0.3294   -2.4948   -3.0455 H   0  0  0  0  0  0  0  0  0  0  0  0
   -2.3859   -1.1559   -1.9206 H   0  0  0  0  0  0  0  0  0  0  0  0
   -0.6992   -0.9548   -1.4776 H   0  0  0  0  0  0  0  0  0  0  0  0
   -0.4765    1.0193   -2.9585 H   0  0  0  0  0  0  0  0  0  0  0  0
   -2.1358    0.8349   -3.4917 H   0  0  0  0  0  0  0  0  0  0  0  0
   -2.1062    2.5726   -1.8574 H   0  0  0  0  0  0  0  0  0  0  0  0
   -2.9805    1.2027   -1.1936 H   0  0  0  0  0  0  0  0  0  0  0  0
   -1.5791    2.2093    0.5166 H   0  0  0  0  0  0  0  0  0  0  0  0
   -1.0346    0.5807    0.2078 H   0  0  0  0  0  0  0  0  0  0  0  0
    0.2583    3.1908   -0.8693 H   0  0  0  0  0  0  0  0  0  0  0  0
    2.3476    2.1764   -0.5841 H   0  0  0  0  0  0  0  0  0  0  0  0
    0.8470   -0.3860    0.3087 H   0  0  0  0  0  0  0  0  0  0  0  0
    2.3358   -0.3271   -0.6185 H   0  0  0  0  0  0  0  0  0  0  0  0
    2.0072    0.7896    2.2176 H   0  0  0  0  0  0  0  0  0  0  0  0
    3.5084    0.7616    1.2997 H   0  0  0  0  0  0  0  0  0  0  0  0
    3.4596   -1.6985    1.1890 H   0  0  0  0  0  0  0  0  0  0  0  0
    1.9364   -1.7660    2.0643 H   0  0  0  0  0  0  0  0  0  0  0  0
    4.3637   -2.0490    3.2221 H   0  0  0  0  0  0  0  0  0  0  0  0
    4.2694   -0.3025    3.3663 H   0  0  0  0  0  0  0  0  0  0  0  0
    3.4906   -1.5011    5.3838 H   0  0  0  0  0  0  0  0  0  0  0  0
    2.2695   -2.3612    4.4555 H   0  0  0  0  0  0  0  0  0  0  0  0
    2.3412    0.6830    4.8050 H   0  0  0  0  0  0  0  0  0  0  0  0
    1.0631   -0.2456    4.0058 H   0  0  0  0  0  0  0  0  0  0  0  0
    0.5737   -1.4405    6.1350 H   0  0  0  0  0  0  0  0  0  0  0  0
    1.8438   -0.5236    6.9509 H   0  0  0  0  0  0  0  0  0  0  0  0
   -0.6348    0.7062    5.6157 H   0  0  0  0  0  0  0  0  0  0  0  0
    0.6379    1.6145    6.4438 H   0  0  0  0  0  0  0  0  0  0  0  0
   -1.2500    1.1796    7.8365 H   0  0  0  0  0  0  0  0  0  0  0  0
   -1.0795   -0.4338    7.6644 H   0  0  0  0  0  0  0  0  0  0  0  0
  1  2  1  0
  2  3  1  0
  2  4  1  0
  4  5  1  0
  5  6  1  0
  6  7  1  0
  7  8  1  0
  8  9  1  0
  9 10  1  0
 10 11  2  0
 11 12  1  0
 12 13  1  0
 13 14  1  0
 14 15  1  0
 15 16  1  0
 16 17  1  0
 17 18  1  0
 18 19  1  0
 19 20  1  0
  1 21  1  0
  1 22  1  0
  1 23  1  0
  2 24  1  1
  3 25  1  0
  3 26  1  0
  4 27  1  0
  4 28  1  0
  5 29  1  0
  5 30  1  0
  6 31  1  0
  6 32  1  0
  7 33  1  0
  7 34  1  0
  8 35  1  0
  8 36  1  0
  9 37  1  0
  9 38  1  0
 10 39  1  0
 11 40  1  0
 12 41  1  0
 12 42  1  0
 13 43  1  0
 13 44  1  0
 14 45  1  0
 14 46  1  0
 15 47  1  0
 15 48  1  0
 16 49  1  0
 16 50  1  0
 17 51  1  0
 17 52  1  0
 18 53  1  0
 18 54  1  0
 19 55  1  0
 19 56  1  0
 20 57  1  0
 20 58  1  0
M  END
