
     RDKit          3D

 15 14  0  0  0  0  0  0  0  0999 V2000
   -0.1510   -0.5324    1.3314 N   0  0  0  0  0  0  0  0  0  0  0  0
   -0.5934   -0.9517   -0.0245 C   0  0  2  0  0  0  0  0  0  0  0  0
   -1.0687    0.2356   -0.8757 C   0  0  0  0  0  0  0  0  0  0  0  0
    0.2728    1.4338   -1.1788 S   0  0  0  0  0  0  0  0  0  0  0  0
   -1.7258   -1.9846    0.1215 C   0  0  0  0  0  0  0  0  0  0  0  0
   -1.3631   -3.1367    0.7713 N   0  0  0  0  0  0  0  0  0  0  0  0
   -2.8763   -1.8229   -0.2665 O   0  0  0  0  0  0  0  0  0  0  0  0
   -0.0058   -1.3671    1.9004 H   0  0  0  0  0  0  0  0  0  0  0  0
   -0.9243   -0.0381    1.7823 H   0  0  0  0  0  0  0  0  0  0  0  0
    0.2425   -1.4549   -0.5265 H   0  0  0  0  0  0  0  0  0  0  0  0
   -1.8918    0.7639   -0.3810 H   0  0  0  0  0  0  0  0  0  0  0  0
   -1.4410   -0.1090   -1.8465 H   0  0  0  0  0  0  0  0  0  0  0  0
    0.6942    1.4757    0.0968 H   0  0  0  0  0  0  0  0  0  0  0  0
   -0.3937   -3.4238    0.8060 H   0  0  0  0  0  0  0  0  0  0  0  0
   -2.0624   -3.8694    0.7912 H   0  0  0  0  0  0  0  0  0  0  0  0
  1  2  1  0
  2  3  1  0
  3  4  1  0
  2  5  1  0
  5  6  1  0
  5  7  2  0
  1  8  1  0
  1  9  1  0
  2 10  1  6
  3 11  1  0
  3 12  1  0
  4 13  1  0
  6 14  1  0
  6 15  1  0
M  END
