
     RDKit          3D

 22 21  0  0  0  0  0  0  0  0999 V2000
    1.1526   -0.4007   -2.4928 N   0  0  0  0  0  0  0  0  0  0  0  0
   -0.2855   -0.0189   -2.5192 C   0  0  1  0  0  0  0  0  0  0  0  0
   -1.0590   -0.4020   -1.2442 C   0  0  0  0  0  0  0  0  0  0  0  0
   -0.3937    0.2930    0.3214 S   0  0  0  0  0  0  0  0  0  0  0  0
    0.7321   -1.0425    0.8224 C   0  0  0  0  0  0  0  0  0  0  0  0
   -0.0329   -2.1118    1.5424 C   0  0  0  0  0  0  0  0  0  0  0  0
    0.1334   -2.4189    2.8363 C   0  0  0  0  0  0  0  0  0  0  0  0
   -0.4487    1.4859   -2.8047 C   0  0  0  0  0  0  0  0  0  0  0  0
    0.6662    2.2471   -2.5861 N   0  0  0  0  0  0  0  0  0  0  0  0
   -1.4969    1.9876   -3.1970 O   0  0  0  0  0  0  0  0  0  0  0  0
    1.5712   -0.0889   -3.3721 H   0  0  0  0  0  0  0  0  0  0  0  0
    1.2182   -1.4181   -2.5012 H   0  0  0  0  0  0  0  0  0  0  0  0
   -0.7383   -0.5370   -3.3741 H   0  0  0  0  0  0  0  0  0  0  0  0
   -2.0889   -0.0359   -1.3254 H   0  0  0  0  0  0  0  0  0  0  0  0
   -1.1217   -1.4917   -1.1573 H   0  0  0  0  0  0  0  0  0  0  0  0
    1.2555   -1.4690   -0.0363 H   0  0  0  0  0  0  0  0  0  0  0  0
    1.4932   -0.6029    1.4760 H   0  0  0  0  0  0  0  0  0  0  0  0
   -0.7571   -2.6809    0.9646 H   0  0  0  0  0  0  0  0  0  0  0  0
    0.8414   -1.8861    3.4639 H   0  0  0  0  0  0  0  0  0  0  0  0
   -0.4507   -3.2082    3.2997 H   0  0  0  0  0  0  0  0  0  0  0  0
    0.5374    3.2494   -2.5855 H   0  0  0  0  0  0  0  0  0  0  0  0
    1.3690    1.8513   -1.9695 H   0  0  0  0  0  0  0  0  0  0  0  0
  1  2  1  0
  2  3  1  0
  3  4  1  0
  4  5  1  0
  5  6  1  0
  6  7  2  3
  2  8  1  0
  8  9  1  0
  8 10  2  0
  1 11  1  0
  1 12  1  0
  2 13  1  6
  3 14  1  0
  3 15  1  0
  5 16  1  0
  5 17  1  0
  6 18  1  0
  7 19  1  0
  7 20  1  0
  9 21  1  0
  9 22  1  0
M  END
