
     RDKit          3D

 58 57  0  0  0  0  0  0  0  0999 V2000
   -0.9030    2.9442    5.3291 C   0  0  0  0  0  0  0  0  0  0  0  0
   -0.7154    4.1241    4.3879 C   0  0  0  0  0  0  0  0  0  0  0  0
   -1.9422    4.3265    3.4962 C   0  0  0  0  0  0  0  0  0  0  0  0
   -1.7783    5.4811    2.5045 C   0  0  0  0  0  0  0  0  0  0  0  0
   -1.3401    5.0805    1.0896 C   0  0  0  0  0  0  0  0  0  0  0  0
    0.0926    4.5554    0.9662 C   0  0  0  0  0  0  0  0  0  0  0  0
    0.1752    3.0259    0.9858 C   0  0  0  0  0  0  0  0  0  0  0  0
    1.6264    2.5501    0.8855 C   0  0  0  0  0  0  0  0  0  0  0  0
    1.7810    1.0325    1.0252 C   0  0  0  0  0  0  0  0  0  0  0  0
    1.0299    0.1884   -0.0099 C   0  0  0  0  0  0  0  0  0  0  0  0
    1.4562    0.4778   -1.4513 C   0  0  0  0  0  0  0  0  0  0  0  0
    0.8468   -0.4960   -2.4660 C   0  0  0  0  0  0  0  0  0  0  0  0
   -0.6710   -0.3491   -2.6029 C   0  0  0  0  0  0  0  0  0  0  0  0
   -1.2646   -1.2043   -3.7242 C   0  0  0  0  0  0  0  0  0  0  0  0
   -1.0915   -2.7279   -3.6217 C   0  0  0  0  0  0  0  0  0  0  0  0
   -1.9205   -3.4109   -2.5157 C   0  0  2  0  0  0  0  0  0  0  0  0
   -1.1153   -3.2533   -0.9146 Cl  0  0  0  0  0  0  0  0  0  0  0  0
   -2.2162   -4.9144   -2.7901 C   0  0  2  0  0  0  0  0  0  0  0  0
   -0.9598   -5.7551   -3.0360 C   0  0  0  0  0  0  0  0  0  0  0  0
   -3.1201   -5.0867   -3.9414 N   0  0  0  0  0  0  0  0  0  0  0  0
   -1.7735    3.0918    5.9761 H   0  0  0  0  0  0  0  0  0  0  0  0
   -1.0440    2.0148    4.7680 H   0  0  0  0  0  0  0  0  0  0  0  0
   -0.0218    2.8250    5.9672 H   0  0  0  0  0  0  0  0  0  0  0  0
   -0.5389    5.0294    4.9808 H   0  0  0  0  0  0  0  0  0  0  0  0
    0.1830    3.9575    3.7876 H   0  0  0  0  0  0  0  0  0  0  0  0
   -2.2041    3.4009    2.9717 H   0  0  0  0  0  0  0  0  0  0  0  0
   -2.7932    4.5584    4.1501 H   0  0  0  0  0  0  0  0  0  0  0  0
   -1.1022    6.2457    2.9054 H   0  0  0  0  0  0  0  0  0  0  0  0
   -2.7575    5.9677    2.4023 H   0  0  0  0  0  0  0  0  0  0  0  0
   -1.4121    5.9856    0.4719 H   0  0  0  0  0  0  0  0  0  0  0  0
   -2.0545    4.3666    0.6625 H   0  0  0  0  0  0  0  0  0  0  0  0
    0.7314    4.9935    1.7412 H   0  0  0  0  0  0  0  0  0  0  0  0
    0.4983    4.8973    0.0048 H   0  0  0  0  0  0  0  0  0  0  0  0
   -0.2732    2.6262    1.8994 H   0  0  0  0  0  0  0  0  0  0  0  0
   -0.4057    2.6306    0.1446 H   0  0  0  0  0  0  0  0  0  0  0  0
    2.2143    3.0233    1.6822 H   0  0  0  0  0  0  0  0  0  0  0  0
    2.0644    2.8875   -0.0609 H   0  0  0  0  0  0  0  0  0  0  0  0
    1.4435    0.7330    2.0255 H   0  0  0  0  0  0  0  0  0  0  0  0
    2.8492    0.7872    0.9759 H   0  0  0  0  0  0  0  0  0  0  0  0
    1.2196   -0.8688    0.2142 H   0  0  0  0  0  0  0  0  0  0  0  0
   -0.0481    0.3393    0.1075 H   0  0  0  0  0  0  0  0  0  0  0  0
    1.1855    1.5025   -1.7299 H   0  0  0  0  0  0  0  0  0  0  0  0
    2.5485    0.4067   -1.5218 H   0  0  0  0  0  0  0  0  0  0  0  0
    1.1124   -1.5200   -2.1835 H   0  0  0  0  0  0  0  0  0  0  0  0
    1.3112   -0.3077   -3.4419 H   0  0  0  0  0  0  0  0  0  0  0  0
   -0.9017    0.7007   -2.8258 H   0  0  0  0  0  0  0  0  0  0  0  0
   -1.1751   -0.5703   -1.6587 H   0  0  0  0  0  0  0  0  0  0  0  0
   -0.8148   -0.8798   -4.6719 H   0  0  0  0  0  0  0  0  0  0  0  0
   -2.3344   -0.9752   -3.8072 H   0  0  0  0  0  0  0  0  0  0  0  0
   -0.0307   -2.9884   -3.5321 H   0  0  0  0  0  0  0  0  0  0  0  0
   -1.4115   -3.1266   -4.5929 H   0  0  0  0  0  0  0  0  0  0  0  0
   -2.8791   -2.8894   -2.4086 H   0  0  0  0  0  0  0  0  0  0  0  0
   -2.7343   -5.3304   -1.9163 H   0  0  0  0  0  0  0  0  0  0  0  0
   -1.2197   -6.8133   -3.1570 H   0  0  0  0  0  0  0  0  0  0  0  0
   -0.2626   -5.6903   -2.1951 H   0  0  0  0  0  0  0  0  0  0  0  0
   -0.4285   -5.4417   -3.9412 H   0  0  0  0  0  0  0  0  0  0  0  0
   -4.0223   -4.6572   -3.7364 H   0  0  0  0  0  0  0  0  0  0  0  0
   -3.3079   -6.0801   -4.0809 H   0  0  0  0  0  0  0  0  0  0  0  0
  1  2  1  0
  2  3  1  0
  3  4  1  0
  4  5  1  0
  5  6  1  0
  6  7  1  0
  7  8  1  0
  8  9  1  0
  9 10  1  0
 10 11  1  0
 11 12  1  0
 12 13  1  0
 13 14  1  0
 14 15  1  0
 15 16  1  0
 16 17  1  0
 16 18  1  0
 18 19  1  0
 18 20  1  0
  1 21  1  0
  1 22  1  0
  1 23  1  0
  2 24  1  0
  2 25  1  0
  3 26  1  0
  3 27  1  0
  4 28  1  0
  4 29  1  0
  5 30  1  0
  5 31  1  0
  6 32  1  0
  6 33  1  0
  7 34  1  0
  7 35  1  0
  8 36  1  0
  8 37  1  0
  9 38  1  0
  9 39  1  0
 10 40  1  0
 10 41  1  0
 11 42  1  0
 11 43  1  0
 12 44  1  0
 12 45  1  0
 13 46  1  0
 13 47  1  0
 14 48  1  0
 14 49  1  0
 15 50  1  0
 15 51  1  0
 16 52  1  1
 18 53  1  1
 19 54  1  0
 19 55  1  0
 19 56  1  0
 20 57  1  0
 20 58  1  0
M  END
