
     RDKit          3D

 37 37  0  0  0  0  0  0  0  0999 V2000
   -0.6286   -1.2468    2.8570 C   0  0  0  0  0  0  0  0  0  0  0  0
    0.6661   -1.6151    2.1468 C   0  0  0  0  0  0  0  0  0  0  0  0
    0.4334   -2.7058    1.1009 C   0  0  0  0  0  0  0  0  0  0  0  0
    1.7088   -3.2077    0.4092 C   0  0  0  0  0  0  0  0  0  0  0  0
    2.3172   -2.3122   -0.6861 C   0  0  2  0  0  0  0  0  0  0  0  0
    2.8578   -1.0532   -0.1517 N   0  0  0  0  0  0  0  0  0  0  0  0
    1.3339   -2.1039   -1.8537 C   0  0  0  0  0  0  0  0  0  0  0  0
    0.8059   -3.0769   -2.4048 O   0  0  0  0  0  0  0  0  0  0  0  0
    1.0146   -0.7040   -2.3464 C   0  0  0  0  0  0  0  0  0  0  0  0
   -0.0589   -0.0431   -1.4913 C   0  0  0  0  0  0  0  0  0  0  0  0
   -0.4096    1.3508   -2.0124 C   0  0  0  0  0  0  0  0  0  0  0  0
   -1.4412    2.0118   -1.1460 C   0  0  0  0  0  0  0  0  0  0  0  0
   -1.2444    2.7200    0.0233 C   0  0  0  0  0  0  0  0  0  0  0  0
   -2.4659    3.1990    0.5782 C   0  0  0  0  0  0  0  0  0  0  0  0
   -3.5535    2.8422   -0.1866 C   0  0  0  0  0  0  0  0  0  0  0  0
   -3.1007    1.9354   -1.5633 S   0  0  0  0  0  0  0  0  0  0  0  0
   -0.4431   -0.4671    3.6023 H   0  0  0  0  0  0  0  0  0  0  0  0
   -1.0554   -2.1136    3.3715 H   0  0  0  0  0  0  0  0  0  0  0  0
   -1.3703   -0.8677    2.1464 H   0  0  0  0  0  0  0  0  0  0  0  0
    1.3968   -1.9594    2.8876 H   0  0  0  0  0  0  0  0  0  0  0  0
    1.0706   -0.7105    1.6863 H   0  0  0  0  0  0  0  0  0  0  0  0
   -0.0243   -3.5662    1.6069 H   0  0  0  0  0  0  0  0  0  0  0  0
   -0.2980   -2.3697    0.3584 H   0  0  0  0  0  0  0  0  0  0  0  0
    2.4708   -3.4252    1.1691 H   0  0  0  0  0  0  0  0  0  0  0  0
    1.4662   -4.1759   -0.0498 H   0  0  0  0  0  0  0  0  0  0  0  0
    3.1694   -2.8537   -1.1175 H   0  0  0  0  0  0  0  0  0  0  0  0
    3.4036   -1.2557    0.6869 H   0  0  0  0  0  0  0  0  0  0  0  0
    3.5229   -0.6599   -0.8181 H   0  0  0  0  0  0  0  0  0  0  0  0
    0.6613   -0.7933   -3.3815 H   0  0  0  0  0  0  0  0  0  0  0  0
    1.9295   -0.1056   -2.3940 H   0  0  0  0  0  0  0  0  0  0  0  0
   -0.9562   -0.6752   -1.4752 H   0  0  0  0  0  0  0  0  0  0  0  0
    0.2796    0.0298   -0.4523 H   0  0  0  0  0  0  0  0  0  0  0  0
   -0.7612    1.2863   -3.0496 H   0  0  0  0  0  0  0  0  0  0  0  0
    0.4923    1.9760   -2.0293 H   0  0  0  0  0  0  0  0  0  0  0  0
   -0.2681    2.8832    0.4639 H   0  0  0  0  0  0  0  0  0  0  0  0
   -2.5430    3.7749    1.4920 H   0  0  0  0  0  0  0  0  0  0  0  0
   -4.5949    3.0689   -0.0046 H   0  0  0  0  0  0  0  0  0  0  0  0
  1  2  1  0
  2  3  1  0
  3  4  1  0
  4  5  1  0
  5  6  1  0
  5  7  1  0
  7  8  2  0
  7  9  1  0
  9 10  1  0
 10 11  1  0
 11 12  1  0
 12 13  2  0
 13 14  1  0
 14 15  2  0
 15 16  1  0
 16 12  1  0
  1 17  1  0
  1 18  1  0
  1 19  1  0
  2 20  1  0
  2 21  1  0
  3 22  1  0
  3 23  1  0
  4 24  1  0
  4 25  1  0
  5 26  1  6
  6 27  1  0
  6 28  1  0
  9 29  1  0
  9 30  1  0
 10 31  1  0
 10 32  1  0
 11 33  1  0
 11 34  1  0
 13 35  1  0
 14 36  1  0
 15 37  1  0
M  END
