
     RDKit          3D

 20 19  0  0  0  0  0  0  0  0999 V2000
    0.9522    2.2266    0.7865 C   0  0  0  0  0  0  0  0  0  0  0  0
    1.4398    1.2334   -0.2621 C   0  0  0  0  0  0  0  0  0  0  0  0
    0.5431   -0.0165   -0.3728 C   0  0  1  0  0  0  0  0  0  0  0  0
    1.0025   -0.8112   -1.5151 N   0  0  0  0  0  0  0  0  0  0  0  0
    0.4628   -0.9223    0.8459 C   0  0  0  0  0  0  0  0  0  0  0  0
   -0.8239   -1.6957    0.9910 C   0  0  0  0  0  0  0  0  0  0  0  0
    1.4365   -1.0562    1.7644 C   0  0  0  0  0  0  0  0  0  0  0  0
   -0.0777    2.5364    0.5817 H   0  0  0  0  0  0  0  0  0  0  0  0
    1.5817    3.1223    0.7746 H   0  0  0  0  0  0  0  0  0  0  0  0
    0.9906    1.8072    1.7955 H   0  0  0  0  0  0  0  0  0  0  0  0
    2.4809    0.9607   -0.0507 H   0  0  0  0  0  0  0  0  0  0  0  0
    1.4518    1.7518   -1.2304 H   0  0  0  0  0  0  0  0  0  0  0  0
   -0.4691    0.3406   -0.6032 H   0  0  0  0  0  0  0  0  0  0  0  0
    0.4000   -1.6240   -1.6244 H   0  0  0  0  0  0  0  0  0  0  0  0
    1.9315   -1.1740   -1.3059 H   0  0  0  0  0  0  0  0  0  0  0  0
   -0.9798   -2.3515    0.1287 H   0  0  0  0  0  0  0  0  0  0  0  0
   -0.8298   -2.3237    1.8883 H   0  0  0  0  0  0  0  0  0  0  0  0
   -1.6726   -1.0078    1.0641 H   0  0  0  0  0  0  0  0  0  0  0  0
    2.3785   -0.5230    1.6924 H   0  0  0  0  0  0  0  0  0  0  0  0
    1.3228   -1.7160    2.6198 H   0  0  0  0  0  0  0  0  0  0  0  0
  1  2  1  0
  2  3  1  0
  3  4  1  0
  3  5  1  0
  5  6  1  0
  5  7  2  3
  1  8  1  0
  1  9  1  0
  1 10  1  0
  2 11  1  0
  2 12  1  0
  3 13  1  6
  4 14  1  0
  4 15  1  0
  6 16  1  0
  6 17  1  0
  6 18  1  0
  7 19  1  0
  7 20  1  0
M  END
