
     RDKit          3D

 27 27  0  0  0  0  0  0  0  0999 V2000
   -3.7369    1.5530    0.7205 C   0  0  0  0  0  0  0  0  0  0  0  0
   -3.7915    0.5365    1.8094 C   0  0  1  0  0  0  0  0  0  0  0  0
   -5.0725   -0.1426    1.7980 N   0  0  0  0  0  0  0  0  0  0  0  0
   -2.6470   -0.4174    1.8572 C   0  0  0  0  0  0  0  0  0  0  0  0
   -2.4920   -1.2417    0.6075 C   0  0  0  0  0  0  0  0  0  0  0  0
   -2.1876   -0.2141   -0.9829 Se  0  0  0  0  0  2  0  0  0  0  0  0
   -0.3545   -0.1590   -1.4928 C   0  0  0  0  0  0  0  0  0  0  0  0
    0.0540   -0.9777   -2.5482 C   0  0  0  0  0  0  0  0  0  0  0  0
    1.3722   -0.9330   -2.9092 C   0  0  0  0  0  0  0  0  0  0  0  0
    2.2951   -0.1101   -2.2646 C   0  0  0  0  0  0  0  0  0  0  0  0
    1.8398    0.6848   -1.2215 C   0  0  0  0  0  0  0  0  0  0  0  0
    0.5250    0.6698   -0.8281 C   0  0  0  0  0  0  0  0  0  0  0  0
   -4.3227    2.4666    1.0363 H   0  0  0  0  0  0  0  0  0  0  0  0
   -2.6912    1.8745    0.5228 H   0  0  0  0  0  0  0  0  0  0  0  0
   -4.2404    1.2255   -0.2114 H   0  0  0  0  0  0  0  0  0  0  0  0
   -3.7680    1.1062    2.7848 H   0  0  0  0  0  0  0  0  0  0  0  0
   -5.0823   -0.9537    2.4478 H   0  0  0  0  0  0  0  0  0  0  0  0
   -5.3071   -0.4397    0.8248 H   0  0  0  0  0  0  0  0  0  0  0  0
   -1.7280    0.1606    2.0810 H   0  0  0  0  0  0  0  0  0  0  0  0
   -2.8561   -1.1359    2.6869 H   0  0  0  0  0  0  0  0  0  0  0  0
   -3.4383   -1.8349    0.4857 H   0  0  0  0  0  0  0  0  0  0  0  0
   -1.6274   -1.9332    0.7914 H   0  0  0  0  0  0  0  0  0  0  0  0
   -0.6208   -1.6213   -3.0670 H   0  0  0  0  0  0  0  0  0  0  0  0
    1.7058   -1.5659   -3.7308 H   0  0  0  0  0  0  0  0  0  0  0  0
    3.3288   -0.0887   -2.5632 H   0  0  0  0  0  0  0  0  0  0  0  0
    2.5163    1.3264   -0.7056 H   0  0  0  0  0  0  0  0  0  0  0  0
    0.1726    1.2951   -0.0093 H   0  0  0  0  0  0  0  0  0  0  0  0
  1  2  1  0
  2  3  1  0
  2  4  1  0
  4  5  1  0
  5  6  1  0
  6  7  1  0
  7  8  2  0
  8  9  1  0
  9 10  2  0
 10 11  1  0
 11 12  2  0
 12  7  1  0
  1 13  1  0
  1 14  1  0
  1 15  1  0
  2 16  1  1
  3 17  1  0
  3 18  1  0
  4 19  1  0
  4 20  1  0
  5 21  1  0
  5 22  1  0
  8 23  1  0
  9 24  1  0
 10 25  1  0
 11 26  1  0
 12 27  1  0
M  END
