
     RDKit          3D

 22 22  0  0  0  0  0  0  0  0999 V2000
   -1.8175   -0.9018   -2.8745 N   0  0  0  0  0  0  0  0  0  0  0  0
   -0.7642   -1.7190   -2.2658 C   0  0  2  0  0  0  0  0  0  0  0  0
    0.1239   -0.9148   -1.2886 C   0  0  0  0  0  0  0  0  0  0  0  0
   -0.6203   -0.3739   -0.0879 C   0  0  0  0  0  0  0  0  0  0  0  0
   -0.9015    0.9953    0.0176 C   0  0  0  0  0  0  0  0  0  0  0  0
   -1.6006    1.4908    1.1193 C   0  0  0  0  0  0  0  0  0  0  0  0
   -2.0237    0.6243    2.1252 C   0  0  0  0  0  0  0  0  0  0  0  0
   -1.7468   -0.7381    2.0319 C   0  0  0  0  0  0  0  0  0  0  0  0
   -1.0478   -1.2360    0.9313 C   0  0  0  0  0  0  0  0  0  0  0  0
    0.0619   -2.2912   -3.3442 C   0  0  0  0  0  0  0  0  0  0  0  0
    0.7324   -2.7590   -4.2247 C   0  0  0  0  0  0  0  0  0  0  0  0
   -1.3867   -0.1207   -3.3652 H   0  0  0  0  0  0  0  0  0  0  0  0
   -2.3770   -0.4887   -2.1283 H   0  0  0  0  0  0  0  0  0  0  0  0
   -1.2493   -2.5413   -1.7264 H   0  0  0  0  0  0  0  0  0  0  0  0
    0.6175   -0.0890   -1.8201 H   0  0  0  0  0  0  0  0  0  0  0  0
    0.9430   -1.5494   -0.9218 H   0  0  0  0  0  0  0  0  0  0  0  0
   -0.5778    1.6869   -0.7571 H   0  0  0  0  0  0  0  0  0  0  0  0
   -1.8140    2.5540    1.1938 H   0  0  0  0  0  0  0  0  0  0  0  0
   -2.5673    1.0111    2.9832 H   0  0  0  0  0  0  0  0  0  0  0  0
   -2.0747   -1.4137    2.8177 H   0  0  0  0  0  0  0  0  0  0  0  0
   -0.8382   -2.3021    0.8763 H   0  0  0  0  0  0  0  0  0  0  0  0
    1.3175   -3.1753   -5.0118 H   0  0  0  0  0  0  0  0  0  0  0  0
  1  2  1  0
  2  3  1  0
  3  4  1  0
  4  5  2  0
  5  6  1  0
  6  7  2  0
  7  8  1  0
  8  9  2  0
  2 10  1  0
 10 11  3  0
  9  4  1  0
  1 12  1  0
  1 13  1  0
  2 14  1  1
  3 15  1  0
  3 16  1  0
  5 17  1  0
  6 18  1  0
  7 19  1  0
  8 20  1  0
  9 21  1  0
 11 22  1  0
M  END
