
     RDKit          3D

 48 47  0  0  0  0  0  0  0  0999 V2000
    0.9205    3.5042    0.0998 C   0  0  2  0  0  0  0  0  0  0  0  0
    0.5395    2.8027   -1.1324 N   0  0  0  0  0  0  0  0  0  0  0  0
    2.0063    2.7153    0.8768 C   0  0  0  0  0  0  0  0  0  0  0  0
    2.5388    3.4492    2.0266 N   0  0  0  0  0  0  0  0  0  0  0  0
   -0.3225    3.8973    0.9295 C   0  0  0  0  0  0  0  0  0  0  0  0
   -1.4502    2.8672    1.0959 C   0  0  0  0  0  0  0  0  0  0  0  0
   -1.0542    1.5842    1.8224 C   0  0  0  0  0  0  0  0  0  0  0  0
   -2.2770    0.7068    2.1063 C   0  0  0  0  0  0  0  0  0  0  0  0
   -1.9500   -0.5679    2.8921 C   0  0  0  0  0  0  0  0  0  0  0  0
   -0.8771   -1.4763    2.2828 C   0  0  0  0  0  0  0  0  0  0  0  0
   -1.1939   -1.9297    0.8557 C   0  0  0  0  0  0  0  0  0  0  0  0
   -0.0993   -2.8533    0.3163 C   0  0  0  0  0  0  0  0  0  0  0  0
   -0.3655   -3.3493   -1.1082 C   0  0  0  0  0  0  0  0  0  0  0  0
   -0.5106   -2.2626   -2.1792 C   0  0  0  0  0  0  0  0  0  0  0  0
    0.7040   -1.3395   -2.2846 C   0  0  0  0  0  0  0  0  0  0  0  0
    0.5522   -0.3519   -3.4315 C   0  0  0  0  0  0  0  0  0  0  0  0
    1.3912    4.4469   -0.2133 H   0  0  0  0  0  0  0  0  0  0  0  0
   -0.1312    3.3694   -1.6502 H   0  0  0  0  0  0  0  0  0  0  0  0
    1.3543    2.6975   -1.7350 H   0  0  0  0  0  0  0  0  0  0  0  0
    1.6303    1.7498    1.2212 H   0  0  0  0  0  0  0  0  0  0  0  0
    2.8435    2.4975    0.2019 H   0  0  0  0  0  0  0  0  0  0  0  0
    3.2631    2.8872    2.4721 H   0  0  0  0  0  0  0  0  0  0  0  0
    2.9954    4.3014    1.7053 H   0  0  0  0  0  0  0  0  0  0  0  0
   -0.0145    4.2481    1.9217 H   0  0  0  0  0  0  0  0  0  0  0  0
   -0.7757    4.7714    0.4404 H   0  0  0  0  0  0  0  0  0  0  0  0
   -1.8741    2.6172    0.1157 H   0  0  0  0  0  0  0  0  0  0  0  0
   -2.2583    3.3553    1.6564 H   0  0  0  0  0  0  0  0  0  0  0  0
   -0.5472    1.8271    2.7631 H   0  0  0  0  0  0  0  0  0  0  0  0
   -0.3570    1.0232    1.1957 H   0  0  0  0  0  0  0  0  0  0  0  0
   -3.0100    1.2834    2.6844 H   0  0  0  0  0  0  0  0  0  0  0  0
   -2.7705    0.4446    1.1630 H   0  0  0  0  0  0  0  0  0  0  0  0
   -1.6276   -0.2864    3.9024 H   0  0  0  0  0  0  0  0  0  0  0  0
   -2.8755   -1.1443    3.0146 H   0  0  0  0  0  0  0  0  0  0  0  0
   -0.7715   -2.3592    2.9258 H   0  0  0  0  0  0  0  0  0  0  0  0
    0.0936   -0.9668    2.3031 H   0  0  0  0  0  0  0  0  0  0  0  0
   -1.2835   -1.0542    0.2062 H   0  0  0  0  0  0  0  0  0  0  0  0
   -2.1587   -2.4502    0.8386 H   0  0  0  0  0  0  0  0  0  0  0  0
    0.8709   -2.3449    0.3577 H   0  0  0  0  0  0  0  0  0  0  0  0
   -0.0141   -3.7285    0.9727 H   0  0  0  0  0  0  0  0  0  0  0  0
    0.4524   -4.0215   -1.3968 H   0  0  0  0  0  0  0  0  0  0  0  0
   -1.2780   -3.9585   -1.1077 H   0  0  0  0  0  0  0  0  0  0  0  0
   -0.6692   -2.7590   -3.1450 H   0  0  0  0  0  0  0  0  0  0  0  0
   -1.4126   -1.6689   -1.9909 H   0  0  0  0  0  0  0  0  0  0  0  0
    1.6118   -1.9340   -2.4390 H   0  0  0  0  0  0  0  0  0  0  0  0
    0.8363   -0.7749   -1.3554 H   0  0  0  0  0  0  0  0  0  0  0  0
    0.4573   -0.8736   -4.3891 H   0  0  0  0  0  0  0  0  0  0  0  0
    1.4281    0.3022   -3.4866 H   0  0  0  0  0  0  0  0  0  0  0  0
   -0.3332    0.2768   -3.2927 H   0  0  0  0  0  0  0  0  0  0  0  0
  1  2  1  0
  1  3  1  0
  3  4  1  0
  1  5  1  0
  5  6  1  0
  6  7  1  0
  7  8  1  0
  8  9  1  0
  9 10  1  0
 10 11  1  0
 11 12  1  0
 12 13  1  0
 13 14  1  0
 14 15  1  0
 15 16  1  0
  1 17  1  6
  2 18  1  0
  2 19  1  0
  3 20  1  0
  3 21  1  0
  4 22  1  0
  4 23  1  0
  5 24  1  0
  5 25  1  0
  6 26  1  0
  6 27  1  0
  7 28  1  0
  7 29  1  0
  8 30  1  0
  8 31  1  0
  9 32  1  0
  9 33  1  0
 10 34  1  0
 10 35  1  0
 11 36  1  0
 11 37  1  0
 12 38  1  0
 12 39  1  0
 13 40  1  0
 13 41  1  0
 14 42  1  0
 14 43  1  0
 15 44  1  0
 15 45  1  0
 16 46  1  0
 16 47  1  0
 16 48  1  0
M  END
