
     RDKit          3D

 54 53  0  0  0  0  0  0  0  0999 V2000
    1.9883   -2.7049    1.4183 C   0  0  2  0  0  0  0  0  0  0  0  0
    1.0515   -3.0289    2.5095 N   0  0  0  0  0  0  0  0  0  0  0  0
    3.3557   -3.3975    1.6503 C   0  0  0  0  0  0  0  0  0  0  0  0
    3.1810   -4.8253    1.9514 N   0  0  0  0  0  0  0  0  0  0  0  0
    2.1132   -1.1872    1.1841 C   0  0  0  0  0  0  0  0  0  0  0  0
    2.6380   -0.3748    2.3736 C   0  0  0  0  0  0  0  0  0  0  0  0
    2.7816    1.1243    2.0731 C   0  0  0  0  0  0  0  0  0  0  0  0
    1.6164    1.9909    2.5580 C   0  0  0  0  0  0  0  0  0  0  0  0
    0.2714    1.8405    1.8424 C   0  0  0  0  0  0  0  0  0  0  0  0
    0.1985    2.4924    0.4560 C   0  0  0  0  0  0  0  0  0  0  0  0
    0.5633    1.5547   -0.6957 C   0  0  0  0  0  0  0  0  0  0  0  0
    0.3690    2.2395   -2.0512 C   0  0  0  0  0  0  0  0  0  0  0  0
    0.8334    1.3847   -3.2344 C   0  0  0  0  0  0  0  0  0  0  0  0
    0.1397    0.0273   -3.3887 C   0  0  0  0  0  0  0  0  0  0  0  0
   -1.3897    0.0639   -3.4765 C   0  0  0  0  0  0  0  0  0  0  0  0
   -1.9099    0.8567   -4.6783 C   0  0  0  0  0  0  0  0  0  0  0  0
   -3.4381    0.8909   -4.7636 C   0  0  0  0  0  0  0  0  0  0  0  0
   -4.0632   -0.4657   -5.0498 C   0  0  0  0  0  0  0  0  0  0  0  0
    1.5562   -3.1350    0.5049 H   0  0  0  0  0  0  0  0  0  0  0  0
    1.4469   -2.7198    3.3975 H   0  0  0  0  0  0  0  0  0  0  0  0
    0.1904   -2.4980    2.3837 H   0  0  0  0  0  0  0  0  0  0  0  0
    3.8819   -2.9471    2.4977 H   0  0  0  0  0  0  0  0  0  0  0  0
    3.9934   -3.2867    0.7668 H   0  0  0  0  0  0  0  0  0  0  0  0
    2.7845   -5.2798    1.1286 H   0  0  0  0  0  0  0  0  0  0  0  0
    2.4149   -4.8741    2.6333 H   0  0  0  0  0  0  0  0  0  0  0  0
    1.1287   -0.8112    0.8920 H   0  0  0  0  0  0  0  0  0  0  0  0
    2.7718   -1.0228    0.3217 H   0  0  0  0  0  0  0  0  0  0  0  0
    2.0068   -0.5219    3.2564 H   0  0  0  0  0  0  0  0  0  0  0  0
    3.6341   -0.7496    2.6351 H   0  0  0  0  0  0  0  0  0  0  0  0
    3.6689    1.4744    2.6184 H   0  0  0  0  0  0  0  0  0  0  0  0
    3.0022    1.3041    1.0177 H   0  0  0  0  0  0  0  0  0  0  0  0
    1.9250    3.0430    2.5066 H   0  0  0  0  0  0  0  0  0  0  0  0
    1.4578    1.7829    3.6244 H   0  0  0  0  0  0  0  0  0  0  0  0
   -0.4672    2.3577    2.4702 H   0  0  0  0  0  0  0  0  0  0  0  0
   -0.0530    0.7965    1.8125 H   0  0  0  0  0  0  0  0  0  0  0  0
    0.8228    3.3931    0.4246 H   0  0  0  0  0  0  0  0  0  0  0  0
   -0.8354    2.8275    0.2997 H   0  0  0  0  0  0  0  0  0  0  0  0
    1.6028    1.2301   -0.6094 H   0  0  0  0  0  0  0  0  0  0  0  0
   -0.0668    0.6604   -0.6401 H   0  0  0  0  0  0  0  0  0  0  0  0
   -0.6826    2.5198   -2.1798 H   0  0  0  0  0  0  0  0  0  0  0  0
    0.9409    3.1758   -2.0648 H   0  0  0  0  0  0  0  0  0  0  0  0
    0.7068    1.9652   -4.1558 H   0  0  0  0  0  0  0  0  0  0  0  0
    1.9124    1.2081   -3.1395 H   0  0  0  0  0  0  0  0  0  0  0  0
    0.5339   -0.4592   -4.2900 H   0  0  0  0  0  0  0  0  0  0  0  0
    0.4246   -0.6208   -2.5512 H   0  0  0  0  0  0  0  0  0  0  0  0
   -1.7389   -0.9728   -3.5435 H   0  0  0  0  0  0  0  0  0  0  0  0
   -1.8110    0.4719   -2.5509 H   0  0  0  0  0  0  0  0  0  0  0  0
   -1.5588    1.8927   -4.6143 H   0  0  0  0  0  0  0  0  0  0  0  0
   -1.4987    0.4383   -5.6048 H   0  0  0  0  0  0  0  0  0  0  0  0
   -3.8552    1.2968   -3.8347 H   0  0  0  0  0  0  0  0  0  0  0  0
   -3.7242    1.5803   -5.5669 H   0  0  0  0  0  0  0  0  0  0  0  0
   -3.6380   -0.9117   -5.9544 H   0  0  0  0  0  0  0  0  0  0  0  0
   -3.9153   -1.1603   -4.2181 H   0  0  0  0  0  0  0  0  0  0  0  0
   -5.1420   -0.3570   -5.2011 H   0  0  0  0  0  0  0  0  0  0  0  0
  1  2  1  0
  1  3  1  0
  3  4  1  0
  1  5  1  0
  5  6  1  0
  6  7  1  0
  7  8  1  0
  8  9  1  0
  9 10  1  0
 10 11  1  0
 11 12  1  0
 12 13  1  0
 13 14  1  0
 14 15  1  0
 15 16  1  0
 16 17  1  0
 17 18  1  0
  1 19  1  6
  2 20  1  0
  2 21  1  0
  3 22  1  0
  3 23  1  0
  4 24  1  0
  4 25  1  0
  5 26  1  0
  5 27  1  0
  6 28  1  0
  6 29  1  0
  7 30  1  0
  7 31  1  0
  8 32  1  0
  8 33  1  0
  9 34  1  0
  9 35  1  0
 10 36  1  0
 10 37  1  0
 11 38  1  0
 11 39  1  0
 12 40  1  0
 12 41  1  0
 13 42  1  0
 13 43  1  0
 14 44  1  0
 14 45  1  0
 15 46  1  0
 15 47  1  0
 16 48  1  0
 16 49  1  0
 17 50  1  0
 17 51  1  0
 18 52  1  0
 18 53  1  0
 18 54  1  0
M  END
