
     RDKit          3D

 19 18  0  0  0  0  0  0  0  0999 V2000
   -0.3278   -1.6395   -1.5111 N   0  0  0  0  0  0  0  0  0  0  0  0
   -0.1700   -0.5459   -0.5129 C   0  0  1  0  0  0  0  0  0  0  0  0
   -1.4104   -0.2667    0.3291 C   0  0  0  0  0  0  0  0  0  0  0  0
   -1.7767   -1.5287    1.5384 S   0  0  0  0  0  6  0  0  0  0  0  0
   -1.0464   -0.9418    2.9187 N   0  0  0  0  0  0  0  0  0  0  0  0
   -1.1024   -2.7567    1.1827 O   0  0  0  0  0  0  0  0  0  0  0  0
   -3.1968   -1.5122    1.8059 O   0  0  0  0  0  0  0  0  0  0  0  0
    1.0957   -0.8024    0.3316 C   0  0  0  0  0  0  0  0  0  0  0  0
    2.1379   -1.3277   -0.3814 N   0  0  0  0  0  0  0  0  0  0  0  0
    1.2117   -0.5266    1.5205 O   0  0  0  0  0  0  0  0  0  0  0  0
   -0.5191   -2.5113   -0.9985 H   0  0  0  0  0  0  0  0  0  0  0  0
   -1.1608   -1.4713   -2.0765 H   0  0  0  0  0  0  0  0  0  0  0  0
    0.0408    0.3623   -1.0922 H   0  0  0  0  0  0  0  0  0  0  0  0
   -1.3219    0.6824    0.8693 H   0  0  0  0  0  0  0  0  0  0  0  0
   -2.2941   -0.1833   -0.3140 H   0  0  0  0  0  0  0  0  0  0  0  0
   -1.4386   -1.3576    3.7625 H   0  0  0  0  0  0  0  0  0  0  0  0
   -0.0194   -1.0026    2.8606 H   0  0  0  0  0  0  0  0  0  0  0  0
    1.8955   -1.8026   -1.2472 H   0  0  0  0  0  0  0  0  0  0  0  0
    2.9426   -1.6538    0.1353 H   0  0  0  0  0  0  0  0  0  0  0  0
  1  2  1  0
  2  3  1  0
  3  4  1  0
  4  5  1  0
  4  6  2  0
  4  7  2  0
  2  8  1  0
  8  9  1  0
  8 10  2  0
  1 11  1  0
  1 12  1  0
  2 13  1  6
  3 14  1  0
  3 15  1  0
  5 16  1  0
  5 17  1  0
  9 18  1  0
  9 19  1  0
M  END
