
     RDKit          3D

 21 20  0  0  0  0  0  0  0  0999 V2000
   -1.4513    1.9192   -1.7633 C   0  0  0  0  0  0  0  0  0  0  0  0
   -0.1662    1.1166   -1.6134 C   0  0  0  0  0  0  0  0  0  0  0  0
   -0.0201    0.2633   -0.3319 C   0  0  1  0  0  0  0  0  0  0  0  0
   -0.3930    1.0432    0.9341 C   0  0  0  0  0  0  0  0  0  0  0  0
   -0.7042   -1.1219   -0.4380 C   0  0  1  0  0  0  0  0  0  0  0  0
   -0.3401   -2.0128    0.6800 N   0  0  0  0  0  0  0  0  0  0  0  0
   -2.2283   -1.0441   -0.5099 C   0  0  0  0  0  0  0  0  0  0  0  0
   -2.9643   -0.9937    0.4739 O   0  0  0  0  0  0  0  0  0  0  0  0
   -1.5629    2.6533   -0.9600 H   0  0  0  0  0  0  0  0  0  0  0  0
   -1.4304    2.4735   -2.7079 H   0  0  0  0  0  0  0  0  0  0  0  0
   -2.3384    1.2841   -1.7784 H   0  0  0  0  0  0  0  0  0  0  0  0
   -0.0372    0.4773   -2.4953 H   0  0  0  0  0  0  0  0  0  0  0  0
    0.6667    1.8320   -1.6378 H   0  0  0  0  0  0  0  0  0  0  0  0
    1.0586    0.0577   -0.2546 H   0  0  0  0  0  0  0  0  0  0  0  0
   -1.4657    1.2510    0.9892 H   0  0  0  0  0  0  0  0  0  0  0  0
   -0.1132    0.4901    1.8365 H   0  0  0  0  0  0  0  0  0  0  0  0
    0.1378    2.0010    0.9645 H   0  0  0  0  0  0  0  0  0  0  0  0
   -0.3706   -1.6203   -1.3557 H   0  0  0  0  0  0  0  0  0  0  0  0
    0.6169   -1.8349    0.9778 H   0  0  0  0  0  0  0  0  0  0  0  0
   -0.9377   -1.7811    1.4798 H   0  0  0  0  0  0  0  0  0  0  0  0
   -2.6483   -1.0001   -1.5292 H   0  0  0  0  0  0  0  0  0  0  0  0
  1  2  1  0
  2  3  1  0
  3  4  1  0
  3  5  1  0
  5  6  1  0
  5  7  1  0
  7  8  2  0
  1  9  1  0
  1 10  1  0
  1 11  1  0
  2 12  1  0
  2 13  1  0
  3 14  1  1
  4 15  1  0
  4 16  1  0
  4 17  1  0
  5 18  1  6
  6 19  1  0
  6 20  1  0
  7 21  1  0
M  END
