
     RDKit          3D

 58 57  0  0  0  0  0  0  0  0999 V2000
   -3.1653    1.1441    6.3448 C   0  0  0  0  0  0  0  0  0  0  0  0
   -3.8139    0.7507    5.0270 C   0  0  0  0  0  0  0  0  0  0  0  0
   -4.1732   -0.7352    4.9999 C   0  0  0  0  0  0  0  0  0  0  0  0
   -4.9089   -1.1599    3.7239 C   0  0  0  0  0  0  0  0  0  0  0  0
   -4.1560   -0.9242    2.4101 C   0  0  0  0  0  0  0  0  0  0  0  0
   -2.8255   -1.6768    2.3329 C   0  0  0  0  0  0  0  0  0  0  0  0
   -2.1332   -1.5389    0.9733 C   0  0  0  0  0  0  0  0  0  0  0  0
   -1.5989   -0.1285    0.7142 C   0  0  0  0  0  0  0  0  0  0  0  0
   -0.8319   -0.0559   -0.6095 C   0  0  0  0  0  0  0  0  0  0  0  0
   -0.2111    1.3291   -0.8119 C   0  0  0  0  0  0  0  0  0  0  0  0
    0.4291    1.5186   -2.1898 C   0  0  0  0  0  0  0  0  0  0  0  0
    1.5348    0.5266   -2.5612 C   0  0  0  0  0  0  0  0  0  0  0  0
    2.7205    0.5412   -1.5902 C   0  0  0  0  0  0  0  0  0  0  0  0
    3.8574   -0.3895   -2.0252 C   0  0  0  0  0  0  0  0  0  0  0  0
    4.5651    0.0970   -3.2577 C   0  0  0  0  0  0  0  0  0  0  0  0
    4.5628   -0.4613   -4.4796 C   0  0  0  0  0  0  0  0  0  0  0  0
    3.8344   -1.7009   -4.9326 C   0  0  1  0  0  0  0  0  0  0  0  0
    2.9955   -1.3200   -6.0747 N   0  0  0  0  0  0  0  0  0  0  0  0
    4.8269   -2.8288   -5.3410 C   0  0  0  0  0  0  0  0  0  0  0  0
    5.5930   -3.3684   -4.2109 N   0  0  0  0  0  0  0  0  0  0  0  0
   -3.8388    0.9535    7.1875 H   0  0  0  0  0  0  0  0  0  0  0  0
   -2.2406    0.5827    6.5107 H   0  0  0  0  0  0  0  0  0  0  0  0
   -2.9188    2.2103    6.3407 H   0  0  0  0  0  0  0  0  0  0  0  0
   -4.7162    1.3539    4.8757 H   0  0  0  0  0  0  0  0  0  0  0  0
   -3.1227    0.9910    4.2107 H   0  0  0  0  0  0  0  0  0  0  0  0
   -3.2683   -1.3393    5.1317 H   0  0  0  0  0  0  0  0  0  0  0  0
   -4.8199   -0.9628    5.8571 H   0  0  0  0  0  0  0  0  0  0  0  0
   -5.1544   -2.2261    3.8063 H   0  0  0  0  0  0  0  0  0  0  0  0
   -5.8662   -0.6271    3.6738 H   0  0  0  0  0  0  0  0  0  0  0  0
   -4.8004   -1.2563    1.5869 H   0  0  0  0  0  0  0  0  0  0  0  0
   -3.9995    0.1490    2.2662 H   0  0  0  0  0  0  0  0  0  0  0  0
   -3.0097   -2.7425    2.5190 H   0  0  0  0  0  0  0  0  0  0  0  0
   -2.1437   -1.3299    3.1178 H   0  0  0  0  0  0  0  0  0  0  0  0
   -1.2958   -2.2461    0.9461 H   0  0  0  0  0  0  0  0  0  0  0  0
   -2.8218   -1.8326    0.1724 H   0  0  0  0  0  0  0  0  0  0  0  0
   -2.4252    0.5888    0.6843 H   0  0  0  0  0  0  0  0  0  0  0  0
   -0.9398    0.1709    1.5378 H   0  0  0  0  0  0  0  0  0  0  0  0
   -0.0468   -0.8201   -0.6144 H   0  0  0  0  0  0  0  0  0  0  0  0
   -1.5131   -0.2805   -1.4395 H   0  0  0  0  0  0  0  0  0  0  0  0
   -0.9895    2.0933   -0.6933 H   0  0  0  0  0  0  0  0  0  0  0  0
    0.5294    1.5203   -0.0254 H   0  0  0  0  0  0  0  0  0  0  0  0
   -0.3554    1.4630   -2.9543 H   0  0  0  0  0  0  0  0  0  0  0  0
    0.8359    2.5361   -2.2439 H   0  0  0  0  0  0  0  0  0  0  0  0
    1.8808    0.7869   -3.5679 H   0  0  0  0  0  0  0  0  0  0  0  0
    1.1236   -0.4864   -2.6304 H   0  0  0  0  0  0  0  0  0  0  0  0
    2.3839    0.2192   -0.5983 H   0  0  0  0  0  0  0  0  0  0  0  0
    3.0975    1.5658   -1.4814 H   0  0  0  0  0  0  0  0  0  0  0  0
    4.5980   -0.4369   -1.2175 H   0  0  0  0  0  0  0  0  0  0  0  0
    3.4774   -1.4080   -2.1407 H   0  0  0  0  0  0  0  0  0  0  0  0
    5.1460    1.0086   -3.1240 H   0  0  0  0  0  0  0  0  0  0  0  0
    5.1456    0.0340   -5.2557 H   0  0  0  0  0  0  0  0  0  0  0  0
    3.1705   -2.0855   -4.1532 H   0  0  0  0  0  0  0  0  0  0  0  0
    2.2963   -0.6557   -5.7425 H   0  0  0  0  0  0  0  0  0  0  0  0
    2.4703   -2.1388   -6.3823 H   0  0  0  0  0  0  0  0  0  0  0  0
    5.5295   -2.4575   -6.0963 H   0  0  0  0  0  0  0  0  0  0  0  0
    4.2729   -3.6572   -5.7967 H   0  0  0  0  0  0  0  0  0  0  0  0
    6.0657   -2.5954   -3.7407 H   0  0  0  0  0  0  0  0  0  0  0  0
    6.3283   -3.9760   -4.5695 H   0  0  0  0  0  0  0  0  0  0  0  0
  1  2  1  0
  2  3  1  0
  3  4  1  0
  4  5  1  0
  5  6  1  0
  6  7  1  0
  7  8  1  0
  8  9  1  0
  9 10  1  0
 10 11  1  0
 11 12  1  0
 12 13  1  0
 13 14  1  0
 14 15  1  0
 15 16  2  0
 16 17  1  0
 17 18  1  0
 17 19  1  0
 19 20  1  0
  1 21  1  0
  1 22  1  0
  1 23  1  0
  2 24  1  0
  2 25  1  0
  3 26  1  0
  3 27  1  0
  4 28  1  0
  4 29  1  0
  5 30  1  0
  5 31  1  0
  6 32  1  0
  6 33  1  0
  7 34  1  0
  7 35  1  0
  8 36  1  0
  8 37  1  0
  9 38  1  0
  9 39  1  0
 10 40  1  0
 10 41  1  0
 11 42  1  0
 11 43  1  0
 12 44  1  0
 12 45  1  0
 13 46  1  0
 13 47  1  0
 14 48  1  0
 14 49  1  0
 15 50  1  0
 16 51  1  0
 17 52  1  1
 18 53  1  0
 18 54  1  0
 19 55  1  0
 19 56  1  0
 20 57  1  0
 20 58  1  0
M  END
