
     RDKit          3D

 12 11  0  0  0  0  0  0  0  0999 V2000
   -1.4227   -1.0132    0.1951 C   0  0  2  0  0  0  0  0  0  0  0  0
   -2.6648   -1.6899   -0.3734 C   0  0  0  0  0  0  0  0  0  0  0  0
   -0.2543   -1.9146    0.1013 N   0  0  0  0  0  0  0  0  0  0  0  0
   -1.6847   -0.6307    1.6666 C   0  0  0  0  0  0  0  0  0  0  0  0
   -2.1540    1.0366    1.8505 Cl  0  0  0  0  0  0  0  0  0  0  0  0
   -1.6023   -1.4565    2.5759 O   0  0  0  0  0  0  0  0  0  0  0  0
   -1.1922   -0.1142   -0.3860 H   0  0  0  0  0  0  0  0  0  0  0  0
   -3.5328   -1.0246   -0.3087 H   0  0  0  0  0  0  0  0  0  0  0  0
   -2.5231   -1.9548   -1.4268 H   0  0  0  0  0  0  0  0  0  0  0  0
   -2.9128   -2.6041    0.1781 H   0  0  0  0  0  0  0  0  0  0  0  0
   -0.3688   -2.6672    0.7867 H   0  0  0  0  0  0  0  0  0  0  0  0
   -0.2332   -2.3642   -0.8128 H   0  0  0  0  0  0  0  0  0  0  0  0
  1  2  1  0
  1  3  1  0
  1  4  1  0
  4  5  1  0
  4  6  2  0
  1  7  1  6
  2  8  1  0
  2  9  1  0
  2 10  1  0
  3 11  1  0
  3 12  1  0
M  END
