
     RDKit          3D

 37 36  0  0  0  0  0  0  0  0999 V2000
    3.0189   -1.5423    3.8533 C   0  0  0  0  0  0  0  0  0  0  0  0
    1.8993   -2.3948    3.2763 C   0  0  0  0  0  0  0  0  0  0  0  0
    1.2627   -1.8011    2.0167 C   0  0  0  0  0  0  0  0  0  0  0  0
    2.2139   -1.7661    0.8173 C   0  0  0  0  0  0  0  0  0  0  0  0
    1.5795   -1.1622   -0.4407 C   0  0  0  0  0  0  0  0  0  0  0  0
    0.4512   -2.0178   -1.0224 C   0  0  0  0  0  0  0  0  0  0  0  0
   -0.0432   -1.5222   -2.3860 C   0  0  0  0  0  0  0  0  0  0  0  0
   -0.5883   -0.0859   -2.4140 C   0  0  0  0  0  0  0  0  0  0  0  0
   -1.7489    0.1991   -1.4414 C   0  0  2  0  0  0  0  0  0  0  0  0
   -2.8593   -0.7217   -1.7065 N   0  0  0  0  0  0  0  0  0  0  0  0
   -2.2665    1.6460   -1.5530 C   0  0  0  0  0  0  0  0  0  0  0  0
   -1.2343    2.6931   -1.1563 C   0  0  0  0  0  0  0  0  0  0  0  0
    3.3598   -1.9647    4.8041 H   0  0  0  0  0  0  0  0  0  0  0  0
    3.8815   -1.5029    3.1820 H   0  0  0  0  0  0  0  0  0  0  0  0
    2.6777   -0.5193    4.0407 H   0  0  0  0  0  0  0  0  0  0  0  0
    1.1192   -2.5039    4.0393 H   0  0  0  0  0  0  0  0  0  0  0  0
    2.2781   -3.4014    3.0647 H   0  0  0  0  0  0  0  0  0  0  0  0
    0.3849   -2.4092    1.7712 H   0  0  0  0  0  0  0  0  0  0  0  0
    0.8981   -0.7892    2.2309 H   0  0  0  0  0  0  0  0  0  0  0  0
    2.5742   -2.7786    0.5988 H   0  0  0  0  0  0  0  0  0  0  0  0
    3.0945   -1.1630    1.0657 H   0  0  0  0  0  0  0  0  0  0  0  0
    1.2123   -0.1562   -0.2080 H   0  0  0  0  0  0  0  0  0  0  0  0
    2.3654   -1.0468   -1.1974 H   0  0  0  0  0  0  0  0  0  0  0  0
    0.8094   -3.0475   -1.1457 H   0  0  0  0  0  0  0  0  0  0  0  0
   -0.3904   -2.0657   -0.3240 H   0  0  0  0  0  0  0  0  0  0  0  0
    0.7827   -1.5882   -3.1058 H   0  0  0  0  0  0  0  0  0  0  0  0
   -0.8133   -2.2131   -2.7501 H   0  0  0  0  0  0  0  0  0  0  0  0
    0.2419    0.5994   -2.2105 H   0  0  0  0  0  0  0  0  0  0  0  0
   -0.9116    0.1331   -3.4406 H   0  0  0  0  0  0  0  0  0  0  0  0
   -1.4109    0.0329   -0.4125 H   0  0  0  0  0  0  0  0  0  0  0  0
   -3.2127   -0.5719   -2.6509 H   0  0  0  0  0  0  0  0  0  0  0  0
   -3.6348   -0.5152   -1.0781 H   0  0  0  0  0  0  0  0  0  0  0  0
   -3.1387    1.7702   -0.8979 H   0  0  0  0  0  0  0  0  0  0  0  0
   -2.6091    1.8515   -2.5751 H   0  0  0  0  0  0  0  0  0  0  0  0
   -0.8301    2.4894   -0.1597 H   0  0  0  0  0  0  0  0  0  0  0  0
   -0.4046    2.7312   -1.8677 H   0  0  0  0  0  0  0  0  0  0  0  0
   -1.6963    3.6855   -1.1379 H   0  0  0  0  0  0  0  0  0  0  0  0
  1  2  1  0
  2  3  1  0
  3  4  1  0
  4  5  1  0
  5  6  1  0
  6  7  1  0
  7  8  1  0
  8  9  1  0
  9 10  1  0
  9 11  1  0
 11 12  1  0
  1 13  1  0
  1 14  1  0
  1 15  1  0
  2 16  1  0
  2 17  1  0
  3 18  1  0
  3 19  1  0
  4 20  1  0
  4 21  1  0
  5 22  1  0
  5 23  1  0
  6 24  1  0
  6 25  1  0
  7 26  1  0
  7 27  1  0
  8 28  1  0
  8 29  1  0
  9 30  1  1
 10 31  1  0
 10 32  1  0
 11 33  1  0
 11 34  1  0
 12 35  1  0
 12 36  1  0
 12 37  1  0
M  END
