
     RDKit          3D

 30 29  0  0  0  0  0  0  0  0999 V2000
    0.7115   -0.7465    0.2729 C   0  0  0  0  0  0  0  0  0  0  0  0
   -0.1833    0.4506   -0.0343 C   0  0  0  0  0  0  0  0  0  0  0  0
    0.3559    1.1651   -1.2865 C   0  0  0  0  0  0  0  0  0  0  0  0
   -1.7071    0.1386   -0.1803 C   0  0  1  0  0  0  0  0  0  0  0  0
   -1.9867   -0.6605   -1.3818 N   0  0  0  0  0  0  0  0  0  0  0  0
   -2.4955   -0.3451    1.1086 C   0  0  2  0  0  0  0  0  0  0  0  0
   -1.9134    0.1748    2.3530 N   0  0  0  0  0  0  0  0  0  0  0  0
   -2.8621   -1.8610    1.2155 C   0  0  0  0  0  0  0  0  0  0  0  0
   -3.9114   -2.1082    2.3145 C   0  0  0  0  0  0  0  0  0  0  0  0
   -1.6858   -2.8071    1.4428 C   0  0  0  0  0  0  0  0  0  0  0  0
    0.4852   -1.1654    1.2552 H   0  0  0  0  0  0  0  0  0  0  0  0
    0.6186   -1.5313   -0.4835 H   0  0  0  0  0  0  0  0  0  0  0  0
    1.7645   -0.4430    0.3005 H   0  0  0  0  0  0  0  0  0  0  0  0
   -0.0620    1.1677    0.7877 H   0  0  0  0  0  0  0  0  0  0  0  0
    1.3830    1.5087   -1.1208 H   0  0  0  0  0  0  0  0  0  0  0  0
    0.3645    0.5047   -2.1600 H   0  0  0  0  0  0  0  0  0  0  0  0
   -0.2499    2.0453   -1.5264 H   0  0  0  0  0  0  0  0  0  0  0  0
   -2.1511    1.1223   -0.3981 H   0  0  0  0  0  0  0  0  0  0  0  0
   -2.9908   -0.7959   -1.4841 H   0  0  0  0  0  0  0  0  0  0  0  0
   -1.5775   -1.5876   -1.2786 H   0  0  0  0  0  0  0  0  0  0  0  0
   -3.4711    0.1570    1.0168 H   0  0  0  0  0  0  0  0  0  0  0  0
   -2.5455    0.0074    3.1337 H   0  0  0  0  0  0  0  0  0  0  0  0
   -1.8141    1.1875    2.2869 H   0  0  0  0  0  0  0  0  0  0  0  0
   -3.3479   -2.1610    0.2787 H   0  0  0  0  0  0  0  0  0  0  0  0
   -3.4968   -1.9633    3.3172 H   0  0  0  0  0  0  0  0  0  0  0  0
   -4.2865   -3.1364    2.2603 H   0  0  0  0  0  0  0  0  0  0  0  0
   -4.7704   -1.4396    2.1951 H   0  0  0  0  0  0  0  0  0  0  0  0
   -1.0189   -2.8241    0.5793 H   0  0  0  0  0  0  0  0  0  0  0  0
   -1.1114   -2.5359    2.3338 H   0  0  0  0  0  0  0  0  0  0  0  0
   -2.0389   -3.8355    1.5813 H   0  0  0  0  0  0  0  0  0  0  0  0
  1  2  1  0
  2  3  1  0
  2  4  1  0
  4  5  1  0
  4  6  1  0
  6  7  1  0
  6  8  1  0
  8  9  1  0
  8 10  1  0
  1 11  1  0
  1 12  1  0
  1 13  1  0
  2 14  1  0
  3 15  1  0
  3 16  1  0
  3 17  1  0
  4 18  1  6
  5 19  1  0
  5 20  1  0
  6 21  1  6
  7 22  1  0
  7 23  1  0
  8 24  1  0
  9 25  1  0
  9 26  1  0
  9 27  1  0
 10 28  1  0
 10 29  1  0
 10 30  1  0
M  END
