
     RDKit          3D

 34 34  0  0  0  0  0  0  0  0999 V2000
   -3.6784   -1.5826    1.6329 N   0  0  0  0  0  0  0  0  0  0  0  0
   -3.5272   -0.8821    0.3562 C   0  0  0  0  0  0  0  0  0  0  0  0
   -2.4102   -1.4808   -0.5352 C   0  0  1  0  0  0  0  0  0  0  0  0
   -2.3924   -0.8085   -1.8410 N   0  0  0  0  0  0  0  0  0  0  0  0
   -1.0077   -1.4481    0.1096 C   0  0  0  0  0  0  0  0  0  0  0  0
   -0.4495   -0.0444    0.3775 C   0  0  0  0  0  0  0  0  0  0  0  0
    0.8965   -0.0566    1.1152 C   0  0  0  0  0  0  0  0  0  0  0  0
    2.0530   -0.7370    0.3727 C   0  0  0  0  0  0  0  0  0  0  0  0
    2.4194   -0.0821   -0.9366 C   0  0  0  0  0  0  0  0  0  0  0  0
    2.1983   -0.7455   -2.1510 C   0  0  0  0  0  0  0  0  0  0  0  0
    2.5356   -0.1388   -3.3622 C   0  0  0  0  0  0  0  0  0  0  0  0
    3.0993    1.1354   -3.3717 C   0  0  0  0  0  0  0  0  0  0  0  0
    3.3276    1.8032   -2.1704 C   0  0  0  0  0  0  0  0  0  0  0  0
    2.9907    1.1977   -0.9587 C   0  0  0  0  0  0  0  0  0  0  0  0
   -4.4355   -1.1489    2.1599 H   0  0  0  0  0  0  0  0  0  0  0  0
   -3.9658   -2.5447    1.4603 H   0  0  0  0  0  0  0  0  0  0  0  0
   -4.4850   -0.9369   -0.1760 H   0  0  0  0  0  0  0  0  0  0  0  0
   -3.3387    0.1788    0.5525 H   0  0  0  0  0  0  0  0  0  0  0  0
   -2.6557   -2.5352   -0.7196 H   0  0  0  0  0  0  0  0  0  0  0  0
   -3.2576   -1.0031   -2.3417 H   0  0  0  0  0  0  0  0  0  0  0  0
   -1.6340   -1.1824   -2.4099 H   0  0  0  0  0  0  0  0  0  0  0  0
   -1.0291   -2.0127    1.0499 H   0  0  0  0  0  0  0  0  0  0  0  0
   -0.3199   -1.9911   -0.5500 H   0  0  0  0  0  0  0  0  0  0  0  0
   -1.1553    0.5178    0.9990 H   0  0  0  0  0  0  0  0  0  0  0  0
   -0.3509    0.5111   -0.5616 H   0  0  0  0  0  0  0  0  0  0  0  0
    0.7638   -0.5594    2.0815 H   0  0  0  0  0  0  0  0  0  0  0  0
    1.1693    0.9807    1.3466 H   0  0  0  0  0  0  0  0  0  0  0  0
    1.8286   -1.7988    0.2176 H   0  0  0  0  0  0  0  0  0  0  0  0
    2.9425   -0.7223    1.0164 H   0  0  0  0  0  0  0  0  0  0  0  0
    1.7593   -1.7400   -2.1615 H   0  0  0  0  0  0  0  0  0  0  0  0
    2.3582   -0.6607   -4.2985 H   0  0  0  0  0  0  0  0  0  0  0  0
    3.3607    1.6078   -4.3146 H   0  0  0  0  0  0  0  0  0  0  0  0
    3.7674    2.7969   -2.1759 H   0  0  0  0  0  0  0  0  0  0  0  0
    3.1764    1.7312   -0.0295 H   0  0  0  0  0  0  0  0  0  0  0  0
  1  2  1  0
  2  3  1  0
  3  4  1  0
  3  5  1  0
  5  6  1  0
  6  7  1  0
  7  8  1  0
  8  9  1  0
  9 10  2  0
 10 11  1  0
 11 12  2  0
 12 13  1  0
 13 14  2  0
 14  9  1  0
  1 15  1  0
  1 16  1  0
  2 17  1  0
  2 18  1  0
  3 19  1  6
  4 20  1  0
  4 21  1  0
  5 22  1  0
  5 23  1  0
  6 24  1  0
  6 25  1  0
  7 26  1  0
  7 27  1  0
  8 28  1  0
  8 29  1  0
 10 30  1  0
 11 31  1  0
 12 32  1  0
 13 33  1  0
 14 34  1  0
M  END
