
     RDKit          3D

 57 56  0  0  0  0  0  0  0  0999 V2000
   -4.9501   -4.8378   -1.9107 C   0  0  0  0  0  0  0  0  0  0  0  0
   -5.5132   -3.5653   -1.2981 C   0  0  0  0  0  0  0  0  0  0  0  0
   -4.3990   -2.6143   -0.8588 C   0  0  0  0  0  0  0  0  0  0  0  0
   -4.9727   -1.3381   -0.2393 C   0  0  0  0  0  0  0  0  0  0  0  0
   -3.9060   -0.2957    0.1084 C   0  0  0  0  0  0  0  0  0  0  0  0
   -2.9468   -0.7492    1.2123 C   0  0  0  0  0  0  0  0  0  0  0  0
   -1.9806    0.3756    1.5997 C   0  0  0  0  0  0  0  0  0  0  0  0
   -1.0423    0.0050    2.7535 C   0  0  0  0  0  0  0  0  0  0  0  0
   -0.0715   -1.0868    2.3987 C   0  0  0  0  0  0  0  0  0  0  0  0
    1.2423   -0.9607    2.1499 C   0  0  0  0  0  0  0  0  0  0  0  0
    2.0596    0.3007    2.1771 C   0  0  0  0  0  0  0  0  0  0  0  0
    2.2496    0.9313    0.7933 C   0  0  0  0  0  0  0  0  0  0  0  0
    3.0842    0.0706   -0.1579 C   0  0  0  0  0  0  0  0  0  0  0  0
    3.2169    0.6483   -1.5728 C   0  0  0  0  0  0  0  0  0  0  0  0
    3.9525    1.9920   -1.6473 C   0  0  0  0  0  0  0  0  0  0  0  0
    2.9919    3.1876   -1.7410 C   0  0  0  0  0  0  0  0  0  0  0  0
    3.6862    4.5570   -1.7165 C   0  0  2  0  0  0  0  0  0  0  0  0
    4.6652    4.6996   -2.8239 N   0  0  0  0  0  0  0  0  0  0  0  0
    4.3563    4.8099   -0.3492 C   0  0  0  0  0  0  0  0  0  0  0  0
    5.6930    5.0960   -0.4059 N   0  0  0  0  0  0  0  0  0  0  0  0
    3.7611    4.7713    0.7221 O   0  0  0  0  0  0  0  0  0  0  0  0
   -4.3246   -5.3762   -1.1915 H   0  0  0  0  0  0  0  0  0  0  0  0
   -5.7634   -5.5027   -2.2179 H   0  0  0  0  0  0  0  0  0  0  0  0
   -4.3433   -4.6129   -2.7936 H   0  0  0  0  0  0  0  0  0  0  0  0
   -6.1593   -3.0693   -2.0316 H   0  0  0  0  0  0  0  0  0  0  0  0
   -6.1398   -3.8271   -0.4376 H   0  0  0  0  0  0  0  0  0  0  0  0
   -3.7751   -2.3561   -1.7227 H   0  0  0  0  0  0  0  0  0  0  0  0
   -3.7564   -3.1275   -0.1349 H   0  0  0  0  0  0  0  0  0  0  0  0
   -5.5480   -1.5893    0.6601 H   0  0  0  0  0  0  0  0  0  0  0  0
   -5.6766   -0.8821   -0.9466 H   0  0  0  0  0  0  0  0  0  0  0  0
   -4.4171    0.6198    0.4312 H   0  0  0  0  0  0  0  0  0  0  0  0
   -3.3367   -0.0377   -0.7930 H   0  0  0  0  0  0  0  0  0  0  0  0
   -3.5208   -1.0589    2.0938 H   0  0  0  0  0  0  0  0  0  0  0  0
   -2.3783   -1.6194    0.8691 H   0  0  0  0  0  0  0  0  0  0  0  0
   -1.3912    0.6741    0.7236 H   0  0  0  0  0  0  0  0  0  0  0  0
   -2.5623    1.2553    1.9027 H   0  0  0  0  0  0  0  0  0  0  0  0
   -1.6305   -0.3211    3.6201 H   0  0  0  0  0  0  0  0  0  0  0  0
   -0.5174    0.9104    3.0735 H   0  0  0  0  0  0  0  0  0  0  0  0
   -0.4981   -2.0877    2.3403 H   0  0  0  0  0  0  0  0  0  0  0  0
    1.7963   -1.8655    1.9013 H   0  0  0  0  0  0  0  0  0  0  0  0
    1.6077    1.0425    2.8436 H   0  0  0  0  0  0  0  0  0  0  0  0
    3.0381    0.0704    2.6168 H   0  0  0  0  0  0  0  0  0  0  0  0
    1.2710    1.1398    0.3438 H   0  0  0  0  0  0  0  0  0  0  0  0
    2.7497    1.8953    0.9390 H   0  0  0  0  0  0  0  0  0  0  0  0
    2.6324   -0.9239   -0.2501 H   0  0  0  0  0  0  0  0  0  0  0  0
    4.0840   -0.0789    0.2683 H   0  0  0  0  0  0  0  0  0  0  0  0
    2.2294    0.7170   -2.0444 H   0  0  0  0  0  0  0  0  0  0  0  0
    3.7879   -0.0807   -2.1623 H   0  0  0  0  0  0  0  0  0  0  0  0
    4.6337    2.0988   -0.7958 H   0  0  0  0  0  0  0  0  0  0  0  0
    4.5782    1.9830   -2.5484 H   0  0  0  0  0  0  0  0  0  0  0  0
    2.4108    3.1002   -2.6686 H   0  0  0  0  0  0  0  0  0  0  0  0
    2.2651    3.1471   -0.9226 H   0  0  0  0  0  0  0  0  0  0  0  0
    2.9285    5.3404   -1.8407 H   0  0  0  0  0  0  0  0  0  0  0  0
    4.9331    5.6846   -2.8727 H   0  0  0  0  0  0  0  0  0  0  0  0
    4.1856    4.5032   -3.7030 H   0  0  0  0  0  0  0  0  0  0  0  0
    6.1768    4.7786   -1.2403 H   0  0  0  0  0  0  0  0  0  0  0  0
    6.1933    5.0994    0.4719 H   0  0  0  0  0  0  0  0  0  0  0  0
  1  2  1  0
  2  3  1  0
  3  4  1  0
  4  5  1  0
  5  6  1  0
  6  7  1  0
  7  8  1  0
  8  9  1  0
  9 10  2  0
 10 11  1  0
 11 12  1  0
 12 13  1  0
 13 14  1  0
 14 15  1  0
 15 16  1  0
 16 17  1  0
 17 18  1  0
 17 19  1  0
 19 20  1  0
 19 21  2  0
  1 22  1  0
  1 23  1  0
  1 24  1  0
  2 25  1  0
  2 26  1  0
  3 27  1  0
  3 28  1  0
  4 29  1  0
  4 30  1  0
  5 31  1  0
  5 32  1  0
  6 33  1  0
  6 34  1  0
  7 35  1  0
  7 36  1  0
  8 37  1  0
  8 38  1  0
  9 39  1  0
 10 40  1  0
 11 41  1  0
 11 42  1  0
 12 43  1  0
 12 44  1  0
 13 45  1  0
 13 46  1  0
 14 47  1  0
 14 48  1  0
 15 49  1  0
 15 50  1  0
 16 51  1  0
 16 52  1  0
 17 53  1  6
 18 54  1  0
 18 55  1  0
 20 56  1  0
 20 57  1  0
M  END
