
     RDKit          3D

 39 39  0  0  0  0  0  0  0  0999 V2000
    1.1156    2.4262    2.8144 C   0  0  0  0  0  0  0  0  0  0  0  0
    1.4091    1.5659    1.5784 C   0  0  0  0  0  0  0  0  0  0  0  0
    2.7729    1.9575    0.9948 C   0  0  0  0  0  0  0  0  0  0  0  0
    0.2853    1.6089    0.4987 C   0  0  2  0  0  0  0  0  0  0  0  0
    0.0465    2.9911    0.0392 N   0  0  0  0  0  0  0  0  0  0  0  0
   -0.9936    0.9079    0.9772 C   0  0  0  0  0  0  0  0  0  0  0  0
   -2.0289    1.6147    1.4918 C   0  0  0  0  0  0  0  0  0  0  0  0
   -3.2961    1.1499    2.0189 C   0  0  0  0  0  0  0  0  0  0  0  0
   -4.2058    1.9773    2.5490 C   0  0  0  0  0  0  0  0  0  0  0  0
   -1.1341   -0.9126    0.9104 S   0  0  0  0  0  4  0  0  0  0  0  0
   -2.3972   -1.1968    0.1483 O   0  0  0  0  0  0  0  0  0  0  0  0
    0.1962   -1.4158   -0.1984 C   0  0  0  0  0  0  0  0  0  0  0  0
    1.4113   -1.8585    0.3326 C   0  0  0  0  0  0  0  0  0  0  0  0
    2.4510   -2.2463   -0.5165 C   0  0  0  0  0  0  0  0  0  0  0  0
    2.2874   -2.1994   -1.9060 C   0  0  0  0  0  0  0  0  0  0  0  0
    3.3908   -2.6520   -2.8166 C   0  0  0  0  0  0  0  0  0  0  0  0
    1.0575   -1.7901   -2.4340 C   0  0  0  0  0  0  0  0  0  0  0  0
    0.0183   -1.4010   -1.5858 C   0  0  0  0  0  0  0  0  0  0  0  0
    1.9287    2.3373    3.5436 H   0  0  0  0  0  0  0  0  0  0  0  0
    1.0166    3.4861    2.5588 H   0  0  0  0  0  0  0  0  0  0  0  0
    0.1977    2.1062    3.3160 H   0  0  0  0  0  0  0  0  0  0  0  0
    1.5074    0.5332    1.9336 H   0  0  0  0  0  0  0  0  0  0  0  0
    3.0062    1.3552    0.1105 H   0  0  0  0  0  0  0  0  0  0  0  0
    2.8095    3.0140    0.7112 H   0  0  0  0  0  0  0  0  0  0  0  0
    3.5671    1.7859    1.7298 H   0  0  0  0  0  0  0  0  0  0  0  0
    0.6477    1.0915   -0.3936 H   0  0  0  0  0  0  0  0  0  0  0  0
   -0.6407    2.9629   -0.7155 H   0  0  0  0  0  0  0  0  0  0  0  0
    0.8977    3.3583   -0.3827 H   0  0  0  0  0  0  0  0  0  0  0  0
   -1.9097    2.6978    1.5489 H   0  0  0  0  0  0  0  0  0  0  0  0
   -3.5341    0.0904    1.9778 H   0  0  0  0  0  0  0  0  0  0  0  0
   -5.1470    1.5878    2.9246 H   0  0  0  0  0  0  0  0  0  0  0  0
   -4.0463    3.0483    2.6196 H   0  0  0  0  0  0  0  0  0  0  0  0
    1.5592   -1.9115    1.4084 H   0  0  0  0  0  0  0  0  0  0  0  0
    3.3888   -2.5921   -0.0865 H   0  0  0  0  0  0  0  0  0  0  0  0
    3.3021   -3.7259   -3.0070 H   0  0  0  0  0  0  0  0  0  0  0  0
    3.3522   -2.1181   -3.7720 H   0  0  0  0  0  0  0  0  0  0  0  0
    4.3710   -2.4505   -2.3719 H   0  0  0  0  0  0  0  0  0  0  0  0
    0.8966   -1.7771   -3.5100 H   0  0  0  0  0  0  0  0  0  0  0  0
   -0.9342   -1.0907   -2.0115 H   0  0  0  0  0  0  0  0  0  0  0  0
  1  2  1  0
  2  3  1  0
  2  4  1  0
  4  5  1  0
  4  6  1  0
  6  7  2  3
  7  8  1  0
  8  9  2  3
 10  6  1  6
 10 11  2  0
 10 12  1  0
 12 13  2  0
 13 14  1  0
 14 15  2  0
 15 16  1  0
 15 17  1  0
 17 18  2  0
 18 12  1  0
  1 19  1  0
  1 20  1  0
  1 21  1  0
  2 22  1  0
  3 23  1  0
  3 24  1  0
  3 25  1  0
  4 26  1  6
  5 27  1  0
  5 28  1  0
  7 29  1  0
  8 30  1  0
  9 31  1  0
  9 32  1  0
 13 33  1  0
 14 34  1  0
 16 35  1  0
 16 36  1  0
 16 37  1  0
 17 38  1  0
 18 39  1  0
M  END
