
     RDKit          3D

 26 26  0  0  0  0  0  0  0  0999 V2000
    0.2987   -2.9015    0.8709 C   0  0  0  0  0  0  0  0  0  0  0  0
    0.0044   -1.6043    0.1029 C   0  0  2  0  0  0  0  0  0  0  0  0
    0.4647   -1.6245   -1.3905 C   0  0  2  0  0  0  0  0  0  0  0  0
   -0.3960   -2.5956   -2.1415 N   0  0  0  0  0  0  0  0  0  0  0  0
    2.0045   -1.8380   -1.5779 C   0  0  0  0  0  0  0  0  0  0  0  0
    2.4131   -3.0150   -1.0442 F   0  0  0  0  0  0  0  0  0  0  0  0
    2.7155   -0.8603   -0.9681 F   0  0  0  0  0  0  0  0  0  0  0  0
    2.4375   -1.8286   -3.3139 Cl  0  0  0  0  0  0  0  0  0  0  0  0
    0.4426   -0.3378    0.8303 C   0  0  0  0  0  0  0  0  0  0  0  0
   -0.3039    0.8410    0.6545 C   0  0  0  0  0  0  0  0  0  0  0  0
    0.0638    2.0269    1.2931 C   0  0  0  0  0  0  0  0  0  0  0  0
    1.1854    2.0553    2.1162 C   0  0  0  0  0  0  0  0  0  0  0  0
    1.9382    0.8986    2.2994 C   0  0  0  0  0  0  0  0  0  0  0  0
    1.5705   -0.2893    1.6619 C   0  0  0  0  0  0  0  0  0  0  0  0
   -0.1463   -2.8628    1.8722 H   0  0  0  0  0  0  0  0  0  0  0  0
    1.3684   -3.0852    1.0008 H   0  0  0  0  0  0  0  0  0  0  0  0
   -0.1283   -3.7690    0.3573 H   0  0  0  0  0  0  0  0  0  0  0  0
   -1.0961   -1.5465    0.0902 H   0  0  0  0  0  0  0  0  0  0  0  0
    0.2373   -0.6380   -1.8180 H   0  0  0  0  0  0  0  0  0  0  0  0
   -0.1005   -2.6164   -3.1203 H   0  0  0  0  0  0  0  0  0  0  0  0
   -1.3617   -2.2672   -2.1388 H   0  0  0  0  0  0  0  0  0  0  0  0
   -1.1875    0.8440    0.0193 H   0  0  0  0  0  0  0  0  0  0  0  0
   -0.5263    2.9282    1.1487 H   0  0  0  0  0  0  0  0  0  0  0  0
    1.4746    2.9773    2.6132 H   0  0  0  0  0  0  0  0  0  0  0  0
    2.8184    0.9195    2.9372 H   0  0  0  0  0  0  0  0  0  0  0  0
    2.1928   -1.1667    1.8191 H   0  0  0  0  0  0  0  0  0  0  0  0
  1  2  1  0
  2  3  1  0
  3  4  1  0
  3  5  1  0
  5  6  1  0
  5  7  1  0
  5  8  1  0
  2  9  1  0
  9 10  2  0
 10 11  1  0
 11 12  2  0
 12 13  1  0
 13 14  2  0
 14  9  1  0
  1 15  1  0
  1 16  1  0
  1 17  1  0
  2 18  1  6
  3 19  1  6
  4 20  1  0
  4 21  1  0
 10 22  1  0
 11 23  1  0
 12 24  1  0
 13 25  1  0
 14 26  1  0
M  END
