
     RDKit          3D

 26 26  0  0  0  0  0  0  0  0999 V2000
   -1.6553    0.6804    0.9702 C   0  0  0  0  0  0  0  0  0  0  0  0
   -1.3522   -0.3200   -0.1559 C   0  0  2  0  0  0  0  0  0  0  0  0
   -2.4693   -1.3286   -0.1101 N   0  0  0  0  0  0  0  0  0  0  0  0
   -0.0304   -1.1026    0.0988 C   0  0  0  0  0  0  0  0  0  0  0  0
    1.2486   -0.3089    0.2206 C   0  0  0  0  0  0  0  0  0  0  0  0
    2.0646   -0.0966   -0.8995 C   0  0  0  0  0  0  0  0  0  0  0  0
    3.2492    0.6329   -0.7861 C   0  0  0  0  0  0  0  0  0  0  0  0
    3.6349    1.1516    0.4478 C   0  0  0  0  0  0  0  0  0  0  0  0
    2.8379    0.9391    1.5702 C   0  0  0  0  0  0  0  0  0  0  0  0
    1.6524    0.2106    1.4586 C   0  0  0  0  0  0  0  0  0  0  0  0
   -1.2902    0.4488   -1.5137 C   0  0  0  0  0  0  0  0  0  0  0  0
   -0.9849   -0.3986   -2.5285 F   0  0  0  0  0  0  0  0  0  0  0  0
   -2.4816    1.0188   -1.8169 F   0  0  0  0  0  0  0  0  0  0  0  0
   -0.3723    1.4377   -1.5178 F   0  0  0  0  0  0  0  0  0  0  0  0
   -0.9264    1.4975    0.9916 H   0  0  0  0  0  0  0  0  0  0  0  0
   -2.6430    1.1385    0.8375 H   0  0  0  0  0  0  0  0  0  0  0  0
   -1.6442    0.1956    1.9534 H   0  0  0  0  0  0  0  0  0  0  0  0
   -2.3699   -1.9787   -0.8923 H   0  0  0  0  0  0  0  0  0  0  0  0
   -2.4088   -1.8821    0.7439 H   0  0  0  0  0  0  0  0  0  0  0  0
    0.1053   -1.8505   -0.6960 H   0  0  0  0  0  0  0  0  0  0  0  0
   -0.1310   -1.6974    1.0190 H   0  0  0  0  0  0  0  0  0  0  0  0
    1.7828   -0.4917   -1.8737 H   0  0  0  0  0  0  0  0  0  0  0  0
    3.8702    0.7980   -1.6628 H   0  0  0  0  0  0  0  0  0  0  0  0
    4.5568    1.7205    0.5343 H   0  0  0  0  0  0  0  0  0  0  0  0
    3.1404    1.3406    2.5339 H   0  0  0  0  0  0  0  0  0  0  0  0
    1.0486    0.0509    2.3492 H   0  0  0  0  0  0  0  0  0  0  0  0
  1  2  1  0
  2  3  1  6
  2  4  1  0
  4  5  1  0
  5  6  2  0
  6  7  1  0
  7  8  2  0
  8  9  1  0
  9 10  2  0
  2 11  1  0
 11 12  1  0
 11 13  1  0
 11 14  1  0
 10  5  1  0
  1 15  1  0
  1 16  1  0
  1 17  1  0
  3 18  1  0
  3 19  1  0
  4 20  1  0
  4 21  1  0
  6 22  1  0
  7 23  1  0
  8 24  1  0
  9 25  1  0
 10 26  1  0
M  END
