
     RDKit          3D

 29 29  0  0  0  0  0  0  0  0999 V2000
    0.0092    0.3917    2.3698 C   0  0  0  0  0  0  0  0  0  0  0  0
   -0.6047    0.1262    0.9814 C   0  0  1  0  0  0  0  0  0  0  0  0
   -0.1157    1.1974    0.0119 C   0  0  0  0  0  0  0  0  0  0  0  0
    1.2382    1.3266   -0.3304 C   0  0  0  0  0  0  0  0  0  0  0  0
    1.6596    2.3217   -1.2149 C   0  0  0  0  0  0  0  0  0  0  0  0
    0.7345    3.2032   -1.7680 C   0  0  0  0  0  0  0  0  0  0  0  0
   -0.6133    3.0902   -1.4376 C   0  0  0  0  0  0  0  0  0  0  0  0
   -1.0362    2.0955   -0.5535 C   0  0  0  0  0  0  0  0  0  0  0  0
   -0.4521   -1.3617    0.4791 C   0  0  2  0  0  0  0  0  0  0  0  0
   -1.2019   -2.3102    1.4494 C   0  0  0  0  0  0  0  0  0  0  0  0
    0.9777   -1.8140    0.4965 N   0  0  0  0  0  0  0  0  0  0  0  0
   -1.1488   -1.5251   -0.9201 C   0  0  0  0  0  0  0  0  0  0  0  0
   -2.4478   -1.1451   -0.8701 F   0  0  0  0  0  0  0  0  0  0  0  0
   -1.1335   -2.8315   -1.2986 F   0  0  0  0  0  0  0  0  0  0  0  0
   -0.5513   -0.8324   -1.9095 F   0  0  0  0  0  0  0  0  0  0  0  0
   -0.4457   -0.2401    3.1379 H   0  0  0  0  0  0  0  0  0  0  0  0
    1.0905    0.2204    2.3867 H   0  0  0  0  0  0  0  0  0  0  0  0
   -0.1589    1.4319    2.6741 H   0  0  0  0  0  0  0  0  0  0  0  0
   -1.6845    0.2916    1.1138 H   0  0  0  0  0  0  0  0  0  0  0  0
    1.9810    0.6482    0.0828 H   0  0  0  0  0  0  0  0  0  0  0  0
    2.7116    2.4037   -1.4747 H   0  0  0  0  0  0  0  0  0  0  0  0
    1.0634    3.9744   -2.4590 H   0  0  0  0  0  0  0  0  0  0  0  0
   -1.3376    3.7747   -1.8709 H   0  0  0  0  0  0  0  0  0  0  0  0
   -2.0954    2.0274   -0.3144 H   0  0  0  0  0  0  0  0  0  0  0  0
   -0.7595   -2.3170    2.4512 H   0  0  0  0  0  0  0  0  0  0  0  0
   -1.1830   -3.3457    1.0887 H   0  0  0  0  0  0  0  0  0  0  0  0
   -2.2529   -2.0175    1.5539 H   0  0  0  0  0  0  0  0  0  0  0  0
    1.0434   -2.7300    0.0470 H   0  0  0  0  0  0  0  0  0  0  0  0
    1.2966   -1.9392    1.4562 H   0  0  0  0  0  0  0  0  0  0  0  0
  1  2  1  0
  2  3  1  0
  3  4  2  0
  4  5  1  0
  5  6  2  0
  6  7  1  0
  7  8  2  0
  2  9  1  0
  9 10  1  0
  9 11  1  6
  9 12  1  0
 12 13  1  0
 12 14  1  0
 12 15  1  0
  8  3  1  0
  1 16  1  0
  1 17  1  0
  1 18  1  0
  2 19  1  1
  4 20  1  0
  5 21  1  0
  6 22  1  0
  7 23  1  0
  8 24  1  0
 10 25  1  0
 10 26  1  0
 10 27  1  0
 11 28  1  0
 11 29  1  0
M  END
