
     RDKit          3D

 45 46  0  0  0  0  0  0  0  0999 V2000
    3.0202   -1.5289   -0.1849 C   0  0  0  0  0  0  0  0  0  0  0  0
    3.3959   -1.8988    1.2447 C   0  0  0  0  0  0  0  0  0  0  0  0
    2.5078   -1.2016    2.2838 C   0  0  2  0  0  0  0  0  0  0  0  0
    3.0306   -1.4381    3.6396 N   0  0  0  0  0  0  0  0  0  0  0  0
    1.0506   -1.7026    2.2563 C   0  0  0  0  0  0  0  0  0  0  0  0
    0.7485   -2.8080    1.8071 O   0  0  0  0  0  0  0  0  0  0  0  0
    0.0155   -0.7554    2.8447 C   0  0  0  0  0  0  0  0  0  0  0  0
   -1.4172   -1.3031    2.9209 C   0  0  1  0  0  0  0  0  0  0  0  0
   -2.0515   -1.7176    1.5794 C   0  0  0  0  0  0  0  0  0  0  0  0
   -1.9832   -0.6468    0.5170 C   0  0  0  0  0  0  0  0  0  0  0  0
   -1.1284   -0.7975   -0.5802 C   0  0  0  0  0  0  0  0  0  0  0  0
   -1.0382    0.2027   -1.5526 C   0  0  0  0  0  0  0  0  0  0  0  0
   -1.8009    1.3770   -1.4578 C   0  0  0  0  0  0  0  0  0  0  0  0
   -2.6621    1.5136   -0.3575 C   0  0  0  0  0  0  0  0  0  0  0  0
   -2.7553    0.5153    0.6176 C   0  0  0  0  0  0  0  0  0  0  0  0
   -1.7046    2.4299   -2.4826 C   0  0  0  0  0  0  0  0  0  0  0  0
   -1.4348    3.7627   -2.1291 C   0  0  0  0  0  0  0  0  0  0  0  0
   -1.3420    4.7623   -3.1015 C   0  0  0  0  0  0  0  0  0  0  0  0
   -1.5188    4.4457   -4.4459 C   0  0  0  0  0  0  0  0  0  0  0  0
   -1.7879    3.1313   -4.8184 C   0  0  0  0  0  0  0  0  0  0  0  0
   -1.8794    2.1328   -3.8447 C   0  0  0  0  0  0  0  0  0  0  0  0
   -1.5031   -2.4166    3.8867 C   0  0  0  0  0  0  0  0  0  0  0  0
   -1.5912   -3.2667    4.6718 N   0  0  0  0  0  0  0  0  0  0  0  0
    3.7146   -1.9986   -0.8889 H   0  0  0  0  0  0  0  0  0  0  0  0
    3.0675   -0.4457   -0.3353 H   0  0  0  0  0  0  0  0  0  0  0  0
    2.0115   -1.8677   -0.4362 H   0  0  0  0  0  0  0  0  0  0  0  0
    3.3456   -2.9890    1.3569 H   0  0  0  0  0  0  0  0  0  0  0  0
    4.4430   -1.6112    1.4035 H   0  0  0  0  0  0  0  0  0  0  0  0
    2.5015   -0.1232    2.0888 H   0  0  0  0  0  0  0  0  0  0  0  0
    4.0137   -1.1675    3.6761 H   0  0  0  0  0  0  0  0  0  0  0  0
    3.0232   -2.4453    3.8237 H   0  0  0  0  0  0  0  0  0  0  0  0
    0.3501   -0.4913    3.8559 H   0  0  0  0  0  0  0  0  0  0  0  0
    0.0357    0.1634    2.2477 H   0  0  0  0  0  0  0  0  0  0  0  0
   -2.0292   -0.4869    3.3313 H   0  0  0  0  0  0  0  0  0  0  0  0
   -1.6118   -2.6481    1.2001 H   0  0  0  0  0  0  0  0  0  0  0  0
   -3.1109   -1.9649    1.7398 H   0  0  0  0  0  0  0  0  0  0  0  0
   -0.5241   -1.6969   -0.6884 H   0  0  0  0  0  0  0  0  0  0  0  0
   -0.3565    0.0605   -2.3891 H   0  0  0  0  0  0  0  0  0  0  0  0
   -3.2846    2.4013   -0.2612 H   0  0  0  0  0  0  0  0  0  0  0  0
   -3.4427    0.6542    1.4492 H   0  0  0  0  0  0  0  0  0  0  0  0
   -1.2828    4.0310   -1.0857 H   0  0  0  0  0  0  0  0  0  0  0  0
   -1.1297    5.7869   -2.8076 H   0  0  0  0  0  0  0  0  0  0  0  0
   -1.4478    5.2225   -5.2027 H   0  0  0  0  0  0  0  0  0  0  0  0
   -1.9305    2.8809   -5.8664 H   0  0  0  0  0  0  0  0  0  0  0  0
   -2.1028    1.1146   -4.1572 H   0  0  0  0  0  0  0  0  0  0  0  0
  1  2  1  0
  2  3  1  0
  3  4  1  0
  3  5  1  0
  5  6  2  0
  5  7  1  0
  7  8  1  0
  8  9  1  0
  9 10  1  0
 10 11  2  0
 11 12  1  0
 12 13  2  0
 13 14  1  0
 14 15  2  0
 13 16  1  0
 16 17  2  0
 17 18  1  0
 18 19  2  0
 19 20  1  0
 20 21  2  0
  8 22  1  0
 22 23  3  0
 15 10  1  0
 21 16  1  0
  1 24  1  0
  1 25  1  0
  1 26  1  0
  2 27  1  0
  2 28  1  0
  3 29  1  6
  4 30  1  0
  4 31  1  0
  7 32  1  0
  7 33  1  0
  8 34  1  1
  9 35  1  0
  9 36  1  0
 11 37  1  0
 12 38  1  0
 14 39  1  0
 15 40  1  0
 17 41  1  0
 18 42  1  0
 19 43  1  0
 20 44  1  0
 21 45  1  0
M  END
