
     RDKit          3D

 31 32  0  0  0  0  0  0  0  0999 V2000
   -3.5504   -0.0402    3.1768 N   0  0  0  0  0  0  0  0  0  0  0  0
   -4.0866   -0.9625    2.1566 C   0  0  1  0  0  0  0  0  0  0  0  0
   -3.7218   -0.5334    0.7180 C   0  0  0  0  0  0  0  0  0  0  0  0
   -2.2511   -0.5618    0.3651 C   0  0  0  0  0  0  0  0  0  0  0  0
   -1.6892   -1.6821   -0.2585 C   0  0  0  0  0  0  0  0  0  0  0  0
   -0.3289   -1.7076   -0.5837 C   0  0  0  0  0  0  0  0  0  0  0  0
    0.5073   -0.6187   -0.2947 C   0  0  0  0  0  0  0  0  0  0  0  0
   -0.0644    0.4983    0.3331 C   0  0  0  0  0  0  0  0  0  0  0  0
   -1.4243    0.5279    0.6590 C   0  0  0  0  0  0  0  0  0  0  0  0
    1.9391   -0.6488   -0.6351 C   0  0  0  0  0  0  0  0  0  0  0  0
    2.9202   -0.4059    0.3407 C   0  0  0  0  0  0  0  0  0  0  0  0
    4.2799   -0.4345    0.0189 C   0  0  0  0  0  0  0  0  0  0  0  0
    4.6818   -0.7058   -1.2865 C   0  0  0  0  0  0  0  0  0  0  0  0
    3.7258   -0.9494   -2.2693 C   0  0  0  0  0  0  0  0  0  0  0  0
    2.3665   -0.9216   -1.9453 C   0  0  0  0  0  0  0  0  0  0  0  0
   -3.7128   -2.3758    2.4081 C   0  0  0  0  0  0  0  0  0  0  0  0
   -3.4714   -3.4939    2.6110 N   0  0  0  0  0  0  0  0  0  0  0  0
   -3.9485    0.8868    3.0424 H   0  0  0  0  0  0  0  0  0  0  0  0
   -3.8415   -0.3545    4.1024 H   0  0  0  0  0  0  0  0  0  0  0  0
   -5.1802   -0.9043    2.2362 H   0  0  0  0  0  0  0  0  0  0  0  0
   -4.1024    0.4811    0.5341 H   0  0  0  0  0  0  0  0  0  0  0  0
   -4.2630   -1.1709    0.0044 H   0  0  0  0  0  0  0  0  0  0  0  0
   -2.2987   -2.5531   -0.4909 H   0  0  0  0  0  0  0  0  0  0  0  0
    0.0810   -2.6000   -1.0530 H   0  0  0  0  0  0  0  0  0  0  0  0
    0.5504    1.3646    0.5689 H   0  0  0  0  0  0  0  0  0  0  0  0
   -1.8279    1.4098    1.1507 H   0  0  0  0  0  0  0  0  0  0  0  0
    2.6273   -0.2050    1.3694 H   0  0  0  0  0  0  0  0  0  0  0  0
    5.0229   -0.2486    0.7899 H   0  0  0  0  0  0  0  0  0  0  0  0
    5.7389   -0.7287   -1.5373 H   0  0  0  0  0  0  0  0  0  0  0  0
    4.0353   -1.1599   -3.2895 H   0  0  0  0  0  0  0  0  0  0  0  0
    1.6352   -1.1049   -2.7299 H   0  0  0  0  0  0  0  0  0  0  0  0
  1  2  1  0
  2  3  1  0
  3  4  1  0
  4  5  2  0
  5  6  1  0
  6  7  2  0
  7  8  1  0
  8  9  2  0
  7 10  1  0
 10 11  2  0
 11 12  1  0
 12 13  2  0
 13 14  1  0
 14 15  2  0
  2 16  1  0
 16 17  3  0
  9  4  1  0
 15 10  1  0
  1 18  1  0
  1 19  1  0
  2 20  1  6
  3 21  1  0
  3 22  1  0
  5 23  1  0
  6 24  1  0
  8 25  1  0
  9 26  1  0
 11 27  1  0
 12 28  1  0
 13 29  1  0
 14 30  1  0
 15 31  1  0
M  END
