
     RDKit          3D

 32 33  0  0  0  0  0  0  0  0999 V2000
    4.1845   -0.3591    1.4150 N   0  0  0  0  0  0  0  0  0  0  0  0
    3.8018    0.7732    2.2821 C   0  0  1  0  0  0  0  0  0  0  0  0
    3.0785    1.9052    1.5137 C   0  0  0  0  0  0  0  0  0  0  0  0
    1.8561    1.4856    0.7248 C   0  0  0  0  0  0  0  0  0  0  0  0
    1.9505    1.2275   -0.6481 C   0  0  0  0  0  0  0  0  0  0  0  0
    0.8257    0.8246   -1.3752 C   0  0  0  0  0  0  0  0  0  0  0  0
   -0.4228    0.6688   -0.7538 C   0  0  0  0  0  0  0  0  0  0  0  0
   -0.5083    0.9346    0.6211 C   0  0  0  0  0  0  0  0  0  0  0  0
    0.6135    1.3403    1.3515 C   0  0  0  0  0  0  0  0  0  0  0  0
   -1.6046    0.2414   -1.5202 C   0  0  0  0  0  0  0  0  0  0  0  0
   -2.3672   -0.8677   -1.1148 C   0  0  0  0  0  0  0  0  0  0  0  0
   -3.4912   -1.2762   -1.8449 C   0  0  0  0  0  0  0  0  0  0  0  0
   -3.8675   -0.5753   -2.9935 C   0  0  0  0  0  0  0  0  0  0  0  0
   -3.1238    0.5273   -3.4095 C   0  0  0  0  0  0  0  0  0  0  0  0
   -2.0031    0.9297   -2.6787 C   0  0  0  0  0  0  0  0  0  0  0  0
   -4.2525   -2.4123   -1.4155 C   0  0  0  0  0  0  0  0  0  0  0  0
   -4.8711   -3.3318   -1.0707 N   0  0  0  0  0  0  0  0  0  0  0  0
    3.0086    0.3385    3.4584 C   0  0  0  0  0  0  0  0  0  0  0  0
    2.3727    0.0263    4.3792 N   0  0  0  0  0  0  0  0  0  0  0  0
    4.6526   -0.0054    0.5828 H   0  0  0  0  0  0  0  0  0  0  0  0
    3.3322   -0.8136    1.0783 H   0  0  0  0  0  0  0  0  0  0  0  0
    4.7365    1.1976    2.6702 H   0  0  0  0  0  0  0  0  0  0  0  0
    3.7932    2.3726    0.8220 H   0  0  0  0  0  0  0  0  0  0  0  0
    2.7871    2.7045    2.2091 H   0  0  0  0  0  0  0  0  0  0  0  0
    2.8991    1.3366   -1.1693 H   0  0  0  0  0  0  0  0  0  0  0  0
    0.9345    0.6210   -2.4391 H   0  0  0  0  0  0  0  0  0  0  0  0
   -1.4608    0.8389    1.1399 H   0  0  0  0  0  0  0  0  0  0  0  0
    0.4973    1.5416    2.4155 H   0  0  0  0  0  0  0  0  0  0  0  0
   -2.0745   -1.4259   -0.2257 H   0  0  0  0  0  0  0  0  0  0  0  0
   -4.7393   -0.8819   -3.5685 H   0  0  0  0  0  0  0  0  0  0  0  0
   -3.4164    1.0775   -4.3009 H   0  0  0  0  0  0  0  0  0  0  0  0
   -1.4434    1.8014   -3.0147 H   0  0  0  0  0  0  0  0  0  0  0  0
  1  2  1  0
  2  3  1  0
  3  4  1  0
  4  5  2  0
  5  6  1  0
  6  7  2  0
  7  8  1  0
  8  9  2  0
  7 10  1  0
 10 11  2  0
 11 12  1  0
 12 13  2  0
 13 14  1  0
 14 15  2  0
 12 16  1  0
 16 17  3  0
  2 18  1  0
 18 19  3  0
  9  4  1  0
 15 10  1  0
  1 20  1  0
  1 21  1  0
  2 22  1  1
  3 23  1  0
  3 24  1  0
  5 25  1  0
  6 26  1  0
  8 27  1  0
  9 28  1  0
 11 29  1  0
 13 30  1  0
 14 31  1  0
 15 32  1  0
M  END
