
     RDKit          3D

 30 30  0  0  0  0  0  0  0  0999 V2000
    0.5185   -0.5146   -3.5479 C   0  0  0  0  0  0  0  0  0  0  0  0
    1.0641    0.5880   -2.6967 C   0  0  0  0  0  0  0  0  0  0  0  0
   -0.2724    1.7792   -2.0097 Se  0  0  0  0  0  2  0  0  0  0  0  0
   -1.2938    1.0194   -0.5553 C   0  0  0  0  0  0  0  0  0  0  0  0
   -0.9076    1.7553    0.7111 C   0  0  1  0  0  0  0  0  0  0  0  0
   -1.1988    3.1774    0.6016 N   0  0  0  0  0  0  0  0  0  0  0  0
   -1.6077    1.2253    1.9202 C   0  0  0  0  0  0  0  0  0  0  0  0
   -1.2777   -0.2081    2.1223 C   0  0  0  0  0  0  0  0  0  0  0  0
   -0.1680   -0.5097    2.9104 C   0  0  0  0  0  0  0  0  0  0  0  0
    0.1962   -1.8222    3.1400 C   0  0  0  0  0  0  0  0  0  0  0  0
   -0.5757   -2.8027    2.5632 C   0  0  0  0  0  0  0  0  0  0  0  0
   -1.6754   -2.5245    1.7817 C   0  0  0  0  0  0  0  0  0  0  0  0
   -2.0263   -1.2205    1.5615 C   0  0  0  0  0  0  0  0  0  0  0  0
    1.3609   -0.9190   -4.1490 H   0  0  0  0  0  0  0  0  0  0  0  0
    0.1715   -1.3740   -2.9103 H   0  0  0  0  0  0  0  0  0  0  0  0
   -0.2593   -0.1893   -4.2538 H   0  0  0  0  0  0  0  0  0  0  0  0
    1.6489    0.1046   -1.8654 H   0  0  0  0  0  0  0  0  0  0  0  0
    1.7987    1.1777   -3.2806 H   0  0  0  0  0  0  0  0  0  0  0  0
   -1.1104   -0.0477   -0.4037 H   0  0  0  0  0  0  0  0  0  0  0  0
   -2.3992    1.1898   -0.6845 H   0  0  0  0  0  0  0  0  0  0  0  0
    0.1912    1.6799    0.8977 H   0  0  0  0  0  0  0  0  0  0  0  0
   -2.0356    3.2721   -0.0177 H   0  0  0  0  0  0  0  0  0  0  0  0
   -0.3853    3.6556    0.1901 H   0  0  0  0  0  0  0  0  0  0  0  0
   -2.7071    1.3044    1.7274 H   0  0  0  0  0  0  0  0  0  0  0  0
   -1.3250    1.8488    2.7822 H   0  0  0  0  0  0  0  0  0  0  0  0
    0.4064    0.2774    3.3410 H   0  0  0  0  0  0  0  0  0  0  0  0
    1.0549   -2.0450    3.7501 H   0  0  0  0  0  0  0  0  0  0  0  0
   -0.3032   -3.8366    2.7337 H   0  0  0  0  0  0  0  0  0  0  0  0
   -2.2208   -3.3483    1.3710 H   0  0  0  0  0  0  0  0  0  0  0  0
   -2.8884   -0.9937    0.9491 H   0  0  0  0  0  0  0  0  0  0  0  0
  1  2  1  0
  2  3  1  0
  3  4  1  0
  4  5  1  0
  5  6  1  0
  5  7  1  0
  7  8  1  0
  8  9  2  0
  9 10  1  0
 10 11  2  0
 11 12  1  0
 12 13  2  0
 13  8  1  0
  1 14  1  0
  1 15  1  0
  1 16  1  0
  2 17  1  0
  2 18  1  0
  4 19  1  0
  4 20  1  0
  5 21  1  1
  6 22  1  0
  6 23  1  0
  7 24  1  0
  7 25  1  0
  9 26  1  0
 10 27  1  0
 11 28  1  0
 12 29  1  0
 13 30  1  0
M  END
