
     RDKit          3D

 36 36  0  0  0  0  0  0  0  0999 V2000
   -2.3635   -1.8217   -2.2267 C   0  0  0  0  0  0  0  0  0  0  0  0
   -3.4443   -2.2955   -1.3248 C   0  0  0  0  0  0  0  0  0  0  0  0
   -3.3993   -1.7320    0.0625 C   0  0  0  0  0  0  0  0  0  0  0  0
   -2.1394   -2.0470    0.8070 C   0  0  0  0  0  0  0  0  0  0  0  0
   -0.5484   -1.3830   -0.0367 Se  0  0  0  0  0  2  0  0  0  0  0  0
    0.4278   -0.1370    1.1061 C   0  0  0  0  0  0  0  0  0  0  0  0
    1.6532    0.3231    0.3817 C   0  0  1  0  0  0  0  0  0  0  0  0
    2.5133   -0.7958    0.0436 N   0  0  0  0  0  0  0  0  0  0  0  0
    1.3767    1.0835   -0.8917 C   0  0  0  0  0  0  0  0  0  0  0  0
    0.6007    2.3127   -0.7128 C   0  0  0  0  0  0  0  0  0  0  0  0
   -0.7638    2.2874   -0.8029 C   0  0  0  0  0  0  0  0  0  0  0  0
   -1.4905    3.4696   -0.6257 C   0  0  0  0  0  0  0  0  0  0  0  0
   -0.8590    4.6592   -0.3624 C   0  0  0  0  0  0  0  0  0  0  0  0
    0.5049    4.6933   -0.2708 C   0  0  0  0  0  0  0  0  0  0  0  0
    1.2014    3.5265   -0.4469 C   0  0  0  0  0  0  0  0  0  0  0  0
   -2.7683   -1.8473   -3.2808 H   0  0  0  0  0  0  0  0  0  0  0  0
   -2.1202   -0.7472   -2.0530 H   0  0  0  0  0  0  0  0  0  0  0  0
   -1.4639   -2.4676   -2.2559 H   0  0  0  0  0  0  0  0  0  0  0  0
   -4.4285   -1.9949   -1.7631 H   0  0  0  0  0  0  0  0  0  0  0  0
   -3.4619   -3.4028   -1.2927 H   0  0  0  0  0  0  0  0  0  0  0  0
   -4.2417   -2.1728    0.6339 H   0  0  0  0  0  0  0  0  0  0  0  0
   -3.5468   -0.6439    0.0701 H   0  0  0  0  0  0  0  0  0  0  0  0
   -2.0507   -3.1424    1.0393 H   0  0  0  0  0  0  0  0  0  0  0  0
   -2.2240   -1.5559    1.8082 H   0  0  0  0  0  0  0  0  0  0  0  0
   -0.2144    0.6676    1.4609 H   0  0  0  0  0  0  0  0  0  0  0  0
    0.7523   -0.7120    1.9983 H   0  0  0  0  0  0  0  0  0  0  0  0
    2.2754    0.9961    1.0295 H   0  0  0  0  0  0  0  0  0  0  0  0
    3.2621   -0.5178   -0.6113 H   0  0  0  0  0  0  0  0  0  0  0  0
    2.9287   -1.1669    0.9298 H   0  0  0  0  0  0  0  0  0  0  0  0
    0.9072    0.4043   -1.6440 H   0  0  0  0  0  0  0  0  0  0  0  0
    2.3529    1.3766   -1.3486 H   0  0  0  0  0  0  0  0  0  0  0  0
   -1.3556    1.4105   -1.0081 H   0  0  0  0  0  0  0  0  0  0  0  0
   -2.5750    3.4550   -0.6962 H   0  0  0  0  0  0  0  0  0  0  0  0
   -1.4128    5.5807   -0.2234 H   0  0  0  0  0  0  0  0  0  0  0  0
    1.0215    5.6344   -0.0615 H   0  0  0  0  0  0  0  0  0  0  0  0
    2.2873    3.5844   -0.3682 H   0  0  0  0  0  0  0  0  0  0  0  0
  1  2  1  0
  2  3  1  0
  3  4  1  0
  4  5  1  0
  5  6  1  0
  6  7  1  0
  7  8  1  0
  7  9  1  0
  9 10  1  0
 10 11  2  0
 11 12  1  0
 12 13  2  0
 13 14  1  0
 14 15  2  0
 15 10  1  0
  1 16  1  0
  1 17  1  0
  1 18  1  0
  2 19  1  0
  2 20  1  0
  3 21  1  0
  3 22  1  0
  4 23  1  0
  4 24  1  0
  6 25  1  0
  6 26  1  0
  7 27  1  1
  8 28  1  0
  8 29  1  0
  9 30  1  0
  9 31  1  0
 11 32  1  0
 12 33  1  0
 13 34  1  0
 14 35  1  0
 15 36  1  0
M  END
