
     RDKit          3D

 37 38  0  0  0  0  0  0  0  0999 V2000
   -4.9879    1.2704    0.3404 C   0  0  0  0  0  0  0  0  0  0  0  0
   -3.6920    1.9848    0.4557 C   0  0  0  0  0  0  0  0  0  0  0  0
   -3.0350    2.4157   -0.6863 C   0  0  0  0  0  0  0  0  0  0  0  0
   -1.8292    3.0827   -0.6186 C   0  0  0  0  0  0  0  0  0  0  0  0
   -1.2246    3.3499    0.5909 C   0  0  0  0  0  0  0  0  0  0  0  0
    0.4642    4.2841    0.6857 Se  0  0  0  0  0  2  0  0  0  0  0  0
    1.8721    3.0014    1.1664 C   0  0  0  0  0  0  0  0  0  0  0  0
    1.4254    1.6228    0.6874 C   0  0  1  0  0  0  0  0  0  0  0  0
    1.2513    1.6976   -0.7321 N   0  0  0  0  0  0  0  0  0  0  0  0
    2.4505    0.6130    1.1174 C   0  0  0  0  0  0  0  0  0  0  0  0
    2.0611   -0.7430    0.6752 C   0  0  0  0  0  0  0  0  0  0  0  0
    1.2846   -1.5541    1.4870 C   0  0  0  0  0  0  0  0  0  0  0  0
    0.9097   -2.8233    1.0939 C   0  0  0  0  0  0  0  0  0  0  0  0
    1.3088   -3.3178   -0.1388 C   0  0  0  0  0  0  0  0  0  0  0  0
    2.0827   -2.5290   -0.9657 C   0  0  0  0  0  0  0  0  0  0  0  0
    2.4423   -1.2647   -0.5464 C   0  0  0  0  0  0  0  0  0  0  0  0
   -1.8703    2.9253    1.7329 C   0  0  0  0  0  0  0  0  0  0  0  0
   -3.0810    2.2556    1.6635 C   0  0  0  0  0  0  0  0  0  0  0  0
   -5.5368    1.2869    1.2865 H   0  0  0  0  0  0  0  0  0  0  0  0
   -4.7638    0.2100    0.0424 H   0  0  0  0  0  0  0  0  0  0  0  0
   -5.5332    1.7360   -0.5069 H   0  0  0  0  0  0  0  0  0  0  0  0
   -3.5038    2.2099   -1.6481 H   0  0  0  0  0  0  0  0  0  0  0  0
   -1.3076    3.4245   -1.5190 H   0  0  0  0  0  0  0  0  0  0  0  0
    2.7454    3.2709    0.5299 H   0  0  0  0  0  0  0  0  0  0  0  0
    2.0868    3.0193    2.2365 H   0  0  0  0  0  0  0  0  0  0  0  0
    0.4676    1.3973    1.2186 H   0  0  0  0  0  0  0  0  0  0  0  0
    0.5022    1.0720   -1.0973 H   0  0  0  0  0  0  0  0  0  0  0  0
    1.1032    2.6752   -1.0680 H   0  0  0  0  0  0  0  0  0  0  0  0
    2.4885    0.6475    2.2341 H   0  0  0  0  0  0  0  0  0  0  0  0
    3.4493    0.9005    0.7515 H   0  0  0  0  0  0  0  0  0  0  0  0
    0.9761   -1.1480    2.4614 H   0  0  0  0  0  0  0  0  0  0  0  0
    0.3072   -3.4417    1.7336 H   0  0  0  0  0  0  0  0  0  0  0  0
    0.9998   -4.3148   -0.4192 H   0  0  0  0  0  0  0  0  0  0  0  0
    2.4130   -2.8910   -1.9436 H   0  0  0  0  0  0  0  0  0  0  0  0
    3.0547   -0.6181   -1.1805 H   0  0  0  0  0  0  0  0  0  0  0  0
   -1.3945    3.1356    2.6845 H   0  0  0  0  0  0  0  0  0  0  0  0
   -3.5799    1.9265    2.5655 H   0  0  0  0  0  0  0  0  0  0  0  0
  1  2  1  0
  2  3  2  0
  3  4  1  0
  4  5  2  0
  5  6  1  0
  6  7  1  0
  7  8  1  0
  8  9  1  0
  8 10  1  0
 10 11  1  0
 11 12  2  0
 12 13  1  0
 13 14  2  0
 14 15  1  0
 15 16  2  0
  5 17  1  0
 17 18  2  0
 18  2  1  0
 16 11  1  0
  1 19  1  0
  1 20  1  0
  1 21  1  0
  3 22  1  0
  4 23  1  0
  7 24  1  0
  7 25  1  0
  8 26  1  1
  9 27  1  0
  9 28  1  0
 10 29  1  0
 10 30  1  0
 12 31  1  0
 13 32  1  0
 14 33  1  0
 15 34  1  0
 16 35  1  0
 17 36  1  0
 18 37  1  0
M  END
