
     RDKit          3D

 37 38  0  0  0  0  0  0  0  0999 V2000
    3.2221   -1.1313   -1.2986 C   0  0  0  0  0  0  0  0  0  0  0  0
    2.0953   -1.9343   -1.8279 C   0  0  0  0  0  0  0  0  0  0  0  0
    1.1727   -2.4046   -0.9225 C   0  0  0  0  0  0  0  0  0  0  0  0
    1.3516   -2.0284    0.9394 Se  0  0  0  0  0  2  0  0  0  0  0  0
    0.5827   -0.3036    1.4024 C   0  0  0  0  0  0  0  0  0  0  0  0
   -0.5398   -0.0289    0.4518 C   0  0  1  0  0  0  0  0  0  0  0  0
   -1.5173   -1.1149    0.6182 N   0  0  0  0  0  0  0  0  0  0  0  0
   -1.2772    1.2536    0.7777 C   0  0  0  0  0  0  0  0  0  0  0  0
   -0.4111    2.4402    0.7346 C   0  0  0  0  0  0  0  0  0  0  0  0
    0.2616    2.8675    1.8604 C   0  0  0  0  0  0  0  0  0  0  0  0
    1.0829    3.9924    1.8202 C   0  0  0  0  0  0  0  0  0  0  0  0
    1.2344    4.6945    0.6526 C   0  0  0  0  0  0  0  0  0  0  0  0
    0.5712    4.2853   -0.4851 C   0  0  0  0  0  0  0  0  0  0  0  0
   -0.2331    3.1729   -0.4207 C   0  0  0  0  0  0  0  0  0  0  0  0
    0.1119   -3.1518   -1.3584 C   0  0  0  0  0  0  0  0  0  0  0  0
   -0.0179   -3.4259   -2.7176 C   0  0  0  0  0  0  0  0  0  0  0  0
    0.9177   -2.9450   -3.6076 C   0  0  0  0  0  0  0  0  0  0  0  0
    1.9920   -2.1915   -3.1893 C   0  0  0  0  0  0  0  0  0  0  0  0
    3.6830   -0.5900   -2.1501 H   0  0  0  0  0  0  0  0  0  0  0  0
    2.8735   -0.3484   -0.5878 H   0  0  0  0  0  0  0  0  0  0  0  0
    3.9993   -1.7581   -0.8116 H   0  0  0  0  0  0  0  0  0  0  0  0
    0.2071   -0.3509    2.4379 H   0  0  0  0  0  0  0  0  0  0  0  0
    1.3975    0.4525    1.2967 H   0  0  0  0  0  0  0  0  0  0  0  0
   -0.2208   -0.0209   -0.5882 H   0  0  0  0  0  0  0  0  0  0  0  0
   -2.3067   -0.8106    1.2389 H   0  0  0  0  0  0  0  0  0  0  0  0
   -1.0773   -1.9439    1.0910 H   0  0  0  0  0  0  0  0  0  0  0  0
   -1.8016    1.1271    1.7554 H   0  0  0  0  0  0  0  0  0  0  0  0
   -2.0979    1.3369    0.0166 H   0  0  0  0  0  0  0  0  0  0  0  0
    0.1877    2.3607    2.8149 H   0  0  0  0  0  0  0  0  0  0  0  0
    1.6156    4.3303    2.7127 H   0  0  0  0  0  0  0  0  0  0  0  0
    1.8888    5.5774    0.6523 H   0  0  0  0  0  0  0  0  0  0  0  0
    0.7134    4.8614   -1.3866 H   0  0  0  0  0  0  0  0  0  0  0  0
   -0.7408    2.8691   -1.3138 H   0  0  0  0  0  0  0  0  0  0  0  0
   -0.6357   -3.5436   -0.7010 H   0  0  0  0  0  0  0  0  0  0  0  0
   -0.8581   -4.0177   -3.0629 H   0  0  0  0  0  0  0  0  0  0  0  0
    0.7970   -3.1716   -4.6697 H   0  0  0  0  0  0  0  0  0  0  0  0
    2.7210   -1.8176   -3.8881 H   0  0  0  0  0  0  0  0  0  0  0  0
  1  2  1  0
  2  3  2  0
  3  4  1  0
  4  5  1  0
  5  6  1  0
  6  7  1  0
  6  8  1  0
  8  9  1  0
  9 10  2  0
 10 11  1  0
 11 12  2  0
 12 13  1  0
 13 14  2  0
  3 15  1  0
 15 16  2  0
 16 17  1  0
 17 18  2  0
 18  2  1  0
 14  9  1  0
  1 19  1  0
  1 20  1  0
  1 21  1  0
  5 22  1  0
  5 23  1  0
  6 24  1  6
  7 25  1  0
  7 26  1  0
  8 27  1  0
  8 28  1  0
 10 29  1  0
 11 30  1  0
 12 31  1  0
 13 32  1  0
 14 33  1  0
 15 34  1  0
 16 35  1  0
 17 36  1  0
 18 37  1  0
M  END
