
     RDKit          3D

 34 35  0  0  0  0  0  0  0  0999 V2000
    0.2379    2.3161   -1.4271 N   0  0  0  0  0  0  0  0  0  0  0  0
   -0.0195    1.1024   -0.5740 C   0  0  2  0  0  0  0  0  0  0  0  0
   -1.3429    1.2627    0.0844 C   0  0  0  0  0  0  0  0  0  0  0  0
   -1.9247   -0.1941    1.1785 Se  0  0  0  0  0  2  0  0  0  0  0  0
   -2.7619   -1.5898    0.1726 C   0  0  0  0  0  0  0  0  0  0  0  0
   -4.1026   -1.5654   -0.1439 C   0  0  0  0  0  0  0  0  0  0  0  0
   -5.1020   -0.2261    0.3770 Cl  0  0  0  0  0  0  0  0  0  0  0  0
   -4.7118   -2.5721   -0.8708 C   0  0  0  0  0  0  0  0  0  0  0  0
   -3.9570   -3.6380   -1.2953 C   0  0  0  0  0  0  0  0  0  0  0  0
   -2.6134   -3.6774   -0.9866 C   0  0  0  0  0  0  0  0  0  0  0  0
   -1.9999   -2.6567   -0.2508 C   0  0  0  0  0  0  0  0  0  0  0  0
    1.1762    0.9745    0.3280 C   0  0  0  0  0  0  0  0  0  0  0  0
    1.1110   -0.1562    1.2366 C   0  0  0  0  0  0  0  0  0  0  0  0
    0.6949   -0.0092    2.5374 C   0  0  0  0  0  0  0  0  0  0  0  0
    0.6437   -1.0675    3.4260 C   0  0  0  0  0  0  0  0  0  0  0  0
    1.0263   -2.3094    2.9766 C   0  0  0  0  0  0  0  0  0  0  0  0
    1.4529   -2.5115    1.6751 C   0  0  0  0  0  0  0  0  0  0  0  0
    1.4876   -1.4104    0.8145 C   0  0  0  0  0  0  0  0  0  0  0  0
   -0.6097    2.4709   -2.0103 H   0  0  0  0  0  0  0  0  0  0  0  0
    1.0749    2.1037   -2.0147 H   0  0  0  0  0  0  0  0  0  0  0  0
   -0.0771    0.2734   -1.3028 H   0  0  0  0  0  0  0  0  0  0  0  0
   -2.1329    1.5699   -0.6463 H   0  0  0  0  0  0  0  0  0  0  0  0
   -1.2435    2.1546    0.7723 H   0  0  0  0  0  0  0  0  0  0  0  0
   -5.7647   -2.5654   -1.1265 H   0  0  0  0  0  0  0  0  0  0  0  0
   -4.4310   -4.4457   -1.8748 H   0  0  0  0  0  0  0  0  0  0  0  0
   -2.0367   -4.5175   -1.3258 H   0  0  0  0  0  0  0  0  0  0  0  0
   -0.9428   -2.7424   -0.0393 H   0  0  0  0  0  0  0  0  0  0  0  0
    2.1046    0.8429   -0.3021 H   0  0  0  0  0  0  0  0  0  0  0  0
    1.3216    1.9462    0.9104 H   0  0  0  0  0  0  0  0  0  0  0  0
    0.3889    0.9544    2.9146 H   0  0  0  0  0  0  0  0  0  0  0  0
    0.3212   -0.9708    4.4477 H   0  0  0  0  0  0  0  0  0  0  0  0
    1.0059   -3.1726    3.6295 H   0  0  0  0  0  0  0  0  0  0  0  0
    1.7553   -3.4596    1.2963 H   0  0  0  0  0  0  0  0  0  0  0  0
    1.8212   -1.5751   -0.1986 H   0  0  0  0  0  0  0  0  0  0  0  0
  1  2  1  0
  2  3  1  0
  3  4  1  0
  4  5  1  0
  5  6  2  0
  6  7  1  0
  6  8  1  0
  8  9  2  0
  9 10  1  0
 10 11  2  0
  2 12  1  0
 12 13  1  0
 13 14  2  0
 14 15  1  0
 15 16  2  0
 16 17  1  0
 17 18  2  0
 11  5  1  0
 18 13  1  0
  1 19  1  0
  1 20  1  0
  2 21  1  6
  3 22  1  0
  3 23  1  0
  8 24  1  0
  9 25  1  0
 10 26  1  0
 11 27  1  0
 12 28  1  0
 12 29  1  0
 14 30  1  0
 15 31  1  0
 16 32  1  0
 17 33  1  0
 18 34  1  0
M  END
