
     RDKit          3D

 26 25  0  0  0  0  0  0  0  0999 V2000
    0.2276   -2.5619    0.6141 C   0  0  0  0  0  0  0  0  0  0  0  0
    0.1914   -1.3571    1.5518 C   0  0  1  0  0  0  0  0  0  0  0  0
    0.6425   -1.7867    2.8783 N   0  0  0  0  0  0  0  0  0  0  0  0
    1.0813   -0.1956    1.0771 C   0  0  0  0  0  0  0  0  0  0  0  0
    0.6358    0.3978   -0.2655 C   0  0  0  0  0  0  0  0  0  0  0  0
    1.4907    1.5931   -0.7078 C   0  0  0  0  0  0  0  0  0  0  0  0
    1.3979    2.8052    0.1923 C   0  0  0  0  0  0  0  0  0  0  0  0
    0.0800    3.5266    0.2285 C   0  0  0  0  0  0  0  0  0  0  0  0
    2.4544    3.2385    0.8996 C   0  0  0  0  0  0  0  0  0  0  0  0
    1.2526   -2.9129    0.4503 H   0  0  0  0  0  0  0  0  0  0  0  0
   -0.3532   -3.3965    1.0235 H   0  0  0  0  0  0  0  0  0  0  0  0
   -0.2088   -2.3194   -0.3598 H   0  0  0  0  0  0  0  0  0  0  0  0
   -0.8439   -1.0063    1.6380 H   0  0  0  0  0  0  0  0  0  0  0  0
    0.0161   -2.5057    3.2380 H   0  0  0  0  0  0  0  0  0  0  0  0
    0.5847   -1.0044    3.5293 H   0  0  0  0  0  0  0  0  0  0  0  0
    1.0631    0.5921    1.8408 H   0  0  0  0  0  0  0  0  0  0  0  0
    2.1238   -0.5306    0.9949 H   0  0  0  0  0  0  0  0  0  0  0  0
    0.7116   -0.3670   -1.0468 H   0  0  0  0  0  0  0  0  0  0  0  0
   -0.4203    0.6871   -0.2117 H   0  0  0  0  0  0  0  0  0  0  0  0
    1.1834    1.8912   -1.7184 H   0  0  0  0  0  0  0  0  0  0  0  0
    2.5342    1.2644   -0.7996 H   0  0  0  0  0  0  0  0  0  0  0  0
   -0.6966    2.8908    0.6641 H   0  0  0  0  0  0  0  0  0  0  0  0
   -0.2265    3.8099   -0.7836 H   0  0  0  0  0  0  0  0  0  0  0  0
    0.1307    4.4428    0.8266 H   0  0  0  0  0  0  0  0  0  0  0  0
    3.4105    2.7244    0.8658 H   0  0  0  0  0  0  0  0  0  0  0  0
    2.3930    4.1164    1.5357 H   0  0  0  0  0  0  0  0  0  0  0  0
  1  2  1  0
  2  3  1  0
  2  4  1  0
  4  5  1  0
  5  6  1  0
  6  7  1  0
  7  8  1  0
  7  9  2  3
  1 10  1  0
  1 11  1  0
  1 12  1  0
  2 13  1  1
  3 14  1  0
  3 15  1  0
  4 16  1  0
  4 17  1  0
  5 18  1  0
  5 19  1  0
  6 20  1  0
  6 21  1  0
  8 22  1  0
  8 23  1  0
  8 24  1  0
  9 25  1  0
  9 26  1  0
M  END
