
     RDKit          3D

 22 21  0  0  0  0  0  0  0  0999 V2000
    2.4655    0.1326   -0.9362 N   0  0  0  0  0  0  0  0  0  0  0  0
    1.3266    0.6129   -1.7215 C   0  0  0  0  0  0  0  0  0  0  0  0
   -0.0688    0.2592   -1.1293 C   0  0  2  0  0  0  0  0  0  0  0  0
   -0.1525    0.7961    0.2502 N   0  0  0  0  0  0  0  0  0  0  0  0
   -0.4099   -1.2763   -1.1702 C   0  0  2  0  0  0  0  0  0  0  0  0
   -0.2105   -1.8800   -2.4999 N   0  0  0  0  0  0  0  0  0  0  0  0
   -1.8809   -1.5702   -0.7408 C   0  0  0  0  0  0  0  0  0  0  0  0
   -2.1965   -1.2280    0.6481 N   0  0  0  0  0  0  0  0  0  0  0  0
    2.3737   -0.8661   -0.7556 H   0  0  0  0  0  0  0  0  0  0  0  0
    2.4812    0.5942   -0.0295 H   0  0  0  0  0  0  0  0  0  0  0  0
    1.4174    0.2413   -2.7469 H   0  0  0  0  0  0  0  0  0  0  0  0
    1.4129    1.7042   -1.7961 H   0  0  0  0  0  0  0  0  0  0  0  0
   -0.8202    0.7872   -1.7305 H   0  0  0  0  0  0  0  0  0  0  0  0
    0.5605    0.3448    0.8225 H   0  0  0  0  0  0  0  0  0  0  0  0
    0.0910    1.7878    0.2341 H   0  0  0  0  0  0  0  0  0  0  0  0
    0.2551   -1.8074   -0.4770 H   0  0  0  0  0  0  0  0  0  0  0  0
   -0.7641   -1.3822   -3.1966 H   0  0  0  0  0  0  0  0  0  0  0  0
    0.7641   -1.8051   -2.7868 H   0  0  0  0  0  0  0  0  0  0  0  0
   -2.0988   -2.6368   -0.8755 H   0  0  0  0  0  0  0  0  0  0  0  0
   -2.5705   -1.0230   -1.3949 H   0  0  0  0  0  0  0  0  0  0  0  0
   -1.6458   -1.8214    1.2662 H   0  0  0  0  0  0  0  0  0  0  0  0
   -1.8314   -0.2793    0.8123 H   0  0  0  0  0  0  0  0  0  0  0  0
  1  2  1  0
  2  3  1  0
  3  4  1  0
  3  5  1  0
  5  6  1  0
  5  7  1  0
  7  8  1  0
  1  9  1  0
  1 10  1  0
  2 11  1  0
  2 12  1  0
  3 13  1  6
  4 14  1  0
  4 15  1  0
  5 16  1  1
  6 17  1  0
  6 18  1  0
  7 19  1  0
  7 20  1  0
  8 21  1  0
  8 22  1  0
M  END
