
     RDKit          3D

 23 23  0  0  0  0  0  0  0  0999 V2000
    0.1207   -0.3219   -0.0932 C   0  0  0  0  0  0  0  0  0  0  0  0
   -0.8855   -1.3657    0.3885 C   0  0  2  0  0  0  0  0  0  0  0  0
   -1.8440   -1.6385   -0.6902 N   0  0  0  0  0  0  0  0  0  0  0  0
   -1.5518   -0.9900    1.7335 C   0  0  0  0  0  0  0  0  0  0  0  0
   -2.3731    0.2778    1.7158 C   0  0  0  0  0  0  0  0  0  0  0  0
   -2.0146    1.5568    2.1239 C   0  0  0  0  0  0  0  0  0  0  0  0
   -0.6851    1.9545    2.6784 C   0  0  0  0  0  0  0  0  0  0  0  0
   -3.0986    2.4787    1.9421 C   0  0  0  0  0  0  0  0  0  0  0  0
   -4.2292    1.8809    1.4380 C   0  0  0  0  0  0  0  0  0  0  0  0
   -4.0059    0.2120    1.1847 S   0  0  0  0  0  0  0  0  0  0  0  0
    0.8715   -0.1238    0.6790 H   0  0  0  0  0  0  0  0  0  0  0  0
    0.6526   -0.6777   -0.9831 H   0  0  0  0  0  0  0  0  0  0  0  0
   -0.3616    0.6259   -0.3545 H   0  0  0  0  0  0  0  0  0  0  0  0
   -0.3305   -2.2967    0.5585 H   0  0  0  0  0  0  0  0  0  0  0  0
   -2.5412   -2.3063   -0.3609 H   0  0  0  0  0  0  0  0  0  0  0  0
   -2.3716   -0.7839   -0.8826 H   0  0  0  0  0  0  0  0  0  0  0  0
   -2.1846   -1.8250    2.0644 H   0  0  0  0  0  0  0  0  0  0  0  0
   -0.7698   -0.9008    2.4981 H   0  0  0  0  0  0  0  0  0  0  0  0
   -0.3650    1.2600    3.4613 H   0  0  0  0  0  0  0  0  0  0  0  0
   -0.7261    2.9553    3.1211 H   0  0  0  0  0  0  0  0  0  0  0  0
    0.0707    1.9671    1.8879 H   0  0  0  0  0  0  0  0  0  0  0  0
   -3.0501    3.5350    2.1797 H   0  0  0  0  0  0  0  0  0  0  0  0
   -5.1798    2.3456    1.2150 H   0  0  0  0  0  0  0  0  0  0  0  0
  1  2  1  0
  2  3  1  0
  2  4  1  0
  4  5  1  0
  5  6  2  0
  6  7  1  0
  6  8  1  0
  8  9  2  0
  9 10  1  0
 10  5  1  0
  1 11  1  0
  1 12  1  0
  1 13  1  0
  2 14  1  1
  3 15  1  0
  3 16  1  0
  4 17  1  0
  4 18  1  0
  7 19  1  0
  7 20  1  0
  7 21  1  0
  8 22  1  0
  9 23  1  0
M  END
