
     RDKit          3D

 20 20  0  0  0  0  0  0  0  0999 V2000
   -2.4367   -2.0953   -0.5736 C   0  0  0  0  0  0  0  0  0  0  0  0
   -2.1008   -0.6454   -0.9223 C   0  0  2  0  0  0  0  0  0  0  0  0
   -2.6670   -0.3486   -2.2433 N   0  0  0  0  0  0  0  0  0  0  0  0
   -0.5724   -0.4260   -0.8837 C   0  0  0  0  0  0  0  0  0  0  0  0
   -0.1871    1.0301   -0.9405 C   0  0  0  0  0  0  0  0  0  0  0  0
    0.2119    1.7888   -2.0236 C   0  0  0  0  0  0  0  0  0  0  0  0
    0.3629    1.2379   -3.6371 Cl  0  0  0  0  0  0  0  0  0  0  0  0
    0.4984    3.1375   -1.6677 C   0  0  0  0  0  0  0  0  0  0  0  0
    0.3166    3.3687   -0.3230 C   0  0  0  0  0  0  0  0  0  0  0  0
   -0.1949    1.9637    0.5030 S   0  0  0  0  0  0  0  0  0  0  0  0
   -1.9832   -2.7953   -1.2845 H   0  0  0  0  0  0  0  0  0  0  0  0
   -2.0697   -2.3470    0.4274 H   0  0  0  0  0  0  0  0  0  0  0  0
   -3.5198   -2.2618   -0.5780 H   0  0  0  0  0  0  0  0  0  0  0  0
   -2.5878    0.0057   -0.1863 H   0  0  0  0  0  0  0  0  0  0  0  0
   -2.4624    0.6187   -2.4951 H   0  0  0  0  0  0  0  0  0  0  0  0
   -3.6827   -0.4248   -2.2071 H   0  0  0  0  0  0  0  0  0  0  0  0
   -0.1637   -0.8631    0.0375 H   0  0  0  0  0  0  0  0  0  0  0  0
   -0.0921   -0.9737   -1.7048 H   0  0  0  0  0  0  0  0  0  0  0  0
    0.8251    3.9017   -2.3620 H   0  0  0  0  0  0  0  0  0  0  0  0
    0.4630    4.2949    0.2160 H   0  0  0  0  0  0  0  0  0  0  0  0
  1  2  1  0
  2  3  1  0
  2  4  1  0
  4  5  1  0
  5  6  2  0
  6  7  1  0
  6  8  1  0
  8  9  2  0
  9 10  1  0
 10  5  1  0
  1 11  1  0
  1 12  1  0
  1 13  1  0
  2 14  1  1
  3 15  1  0
  3 16  1  0
  4 17  1  0
  4 18  1  0
  8 19  1  0
  9 20  1  0
M  END
