
     RDKit          3D

 29 29  0  0  0  0  0  0  0  0999 V2000
   -0.9417    0.0204    2.0573 C   0  0  0  0  0  0  0  0  0  0  0  0
   -1.6718   -0.8247    1.0132 C   0  0  2  0  0  0  0  0  0  0  0  0
   -1.8095   -2.1989    1.5215 N   0  0  0  0  0  0  0  0  0  0  0  0
   -0.9495   -0.8500   -0.3533 C   0  0  0  0  0  0  0  0  0  0  0  0
   -0.9151    0.4895   -1.0785 C   0  0  0  0  0  0  0  0  0  0  0  0
   -2.0823    1.0039   -1.7012 C   0  0  0  0  0  0  0  0  0  0  0  0
   -3.4040    0.2788   -1.7009 C   0  0  0  0  0  0  0  0  0  0  0  0
   -2.0417    2.2637   -2.3227 C   0  0  0  0  0  0  0  0  0  0  0  0
   -0.8651    3.0012   -2.3692 C   0  0  0  0  0  0  0  0  0  0  0  0
    0.2912    2.4907   -1.7927 C   0  0  0  0  0  0  0  0  0  0  0  0
    0.2862    1.2432   -1.1466 C   0  0  0  0  0  0  0  0  0  0  0  0
    1.5865    0.7496   -0.5672 C   0  0  0  0  0  0  0  0  0  0  0  0
    0.0719   -0.3527    2.2399 H   0  0  0  0  0  0  0  0  0  0  0  0
   -0.8705    1.0659    1.7414 H   0  0  0  0  0  0  0  0  0  0  0  0
   -1.4780    0.0084    3.0132 H   0  0  0  0  0  0  0  0  0  0  0  0
   -2.6818   -0.4213    0.8963 H   0  0  0  0  0  0  0  0  0  0  0  0
   -2.2830   -2.1792    2.4245 H   0  0  0  0  0  0  0  0  0  0  0  0
   -0.8858   -2.5926    1.6992 H   0  0  0  0  0  0  0  0  0  0  0  0
   -1.4275   -1.5827   -1.0166 H   0  0  0  0  0  0  0  0  0  0  0  0
    0.0637   -1.2460   -0.2184 H   0  0  0  0  0  0  0  0  0  0  0  0
   -3.2785   -0.7998   -1.8240 H   0  0  0  0  0  0  0  0  0  0  0  0
   -3.9462    0.4825   -0.7732 H   0  0  0  0  0  0  0  0  0  0  0  0
   -4.0306    0.6091   -2.5373 H   0  0  0  0  0  0  0  0  0  0  0  0
   -2.9367    2.6764   -2.7841 H   0  0  0  0  0  0  0  0  0  0  0  0
   -0.8479    3.9698   -2.8609 H   0  0  0  0  0  0  0  0  0  0  0  0
    1.2061    3.0768   -1.8509 H   0  0  0  0  0  0  0  0  0  0  0  0
    1.9082   -0.1618   -1.0809 H   0  0  0  0  0  0  0  0  0  0  0  0
    2.3868    1.4884   -0.6846 H   0  0  0  0  0  0  0  0  0  0  0  0
    1.4859    0.5562    0.5038 H   0  0  0  0  0  0  0  0  0  0  0  0
  1  2  1  0
  2  3  1  0
  2  4  1  0
  4  5  1  0
  5  6  2  0
  6  7  1  0
  6  8  1  0
  8  9  2  0
  9 10  1  0
 10 11  2  0
 11 12  1  0
 11  5  1  0
  1 13  1  0
  1 14  1  0
  1 15  1  0
  2 16  1  6
  3 17  1  0
  3 18  1  0
  4 19  1  0
  4 20  1  0
  7 21  1  0
  7 22  1  0
  7 23  1  0
  8 24  1  0
  9 25  1  0
 10 26  1  0
 12 27  1  0
 12 28  1  0
 12 29  1  0
M  END
