
     RDKit          3D

 23 23  0  0  0  0  0  0  0  0999 V2000
   -2.5386   -1.0217    1.5106 C   0  0  0  0  0  0  0  0  0  0  0  0
   -2.4249    0.1777    0.5702 C   0  0  2  0  0  0  0  0  0  0  0  0
   -3.5283    0.1167   -0.3969 N   0  0  0  0  0  0  0  0  0  0  0  0
   -1.0768    0.2152   -0.1820 C   0  0  0  0  0  0  0  0  0  0  0  0
    0.1097    0.5214    0.7100 C   0  0  0  0  0  0  0  0  0  0  0  0
    1.0274   -0.4522    1.1401 C   0  0  0  0  0  0  0  0  0  0  0  0
    0.8945   -2.1126    0.6843 Cl  0  0  0  0  0  0  0  0  0  0  0  0
    2.0984   -0.1021    1.9716 C   0  0  0  0  0  0  0  0  0  0  0  0
    2.2695    1.2195    2.3852 C   0  0  0  0  0  0  0  0  0  0  0  0
    1.3679    2.1914    1.9654 C   0  0  0  0  0  0  0  0  0  0  0  0
    1.5710    3.8227    2.4714 Cl  0  0  0  0  0  0  0  0  0  0  0  0
    0.2980    1.8511    1.1367 C   0  0  0  0  0  0  0  0  0  0  0  0
   -1.7833   -0.9771    2.3014 H   0  0  0  0  0  0  0  0  0  0  0  0
   -3.5174   -1.0422    2.0035 H   0  0  0  0  0  0  0  0  0  0  0  0
   -2.4146   -1.9680    0.9724 H   0  0  0  0  0  0  0  0  0  0  0  0
   -2.5470    1.0937    1.1607 H   0  0  0  0  0  0  0  0  0  0  0  0
   -3.5342    0.9594   -0.9704 H   0  0  0  0  0  0  0  0  0  0  0  0
   -4.4195    0.1022    0.0986 H   0  0  0  0  0  0  0  0  0  0  0  0
   -1.1115    0.9995   -0.9522 H   0  0  0  0  0  0  0  0  0  0  0  0
   -0.9268   -0.7142   -0.7431 H   0  0  0  0  0  0  0  0  0  0  0  0
    2.8059   -0.8594    2.3019 H   0  0  0  0  0  0  0  0  0  0  0  0
    3.1041    1.4804    3.0305 H   0  0  0  0  0  0  0  0  0  0  0  0
   -0.3951    2.6270    0.8166 H   0  0  0  0  0  0  0  0  0  0  0  0
  1  2  1  0
  2  3  1  0
  2  4  1  0
  4  5  1  0
  5  6  2  0
  6  7  1  0
  6  8  1  0
  8  9  2  0
  9 10  1  0
 10 11  1  0
 10 12  2  0
 12  5  1  0
  1 13  1  0
  1 14  1  0
  1 15  1  0
  2 16  1  1
  3 17  1  0
  3 18  1  0
  4 19  1  0
  4 20  1  0
  8 21  1  0
  9 22  1  0
 12 23  1  0
M  END
