
     RDKit          3D

 26 26  0  0  0  0  0  0  0  0999 V2000
   -1.4343    0.9542   -2.6550 C   0  0  0  0  0  0  0  0  0  0  0  0
   -1.8779   -0.2180   -1.7791 C   0  0  2  0  0  0  0  0  0  0  0  0
   -2.8040   -1.0468   -2.5645 N   0  0  0  0  0  0  0  0  0  0  0  0
   -2.5502    0.2414   -0.4660 C   0  0  0  0  0  0  0  0  0  0  0  0
   -1.6100    0.9184    0.5111 C   0  0  0  0  0  0  0  0  0  0  0  0
   -1.5453    2.3231    0.5165 C   0  0  0  0  0  0  0  0  0  0  0  0
   -0.6894    2.9871    1.3872 C   0  0  0  0  0  0  0  0  0  0  0  0
   -0.6423    4.3257    1.3729 F   0  0  0  0  0  0  0  0  0  0  0  0
    0.1154    2.2838    2.2689 C   0  0  0  0  0  0  0  0  0  0  0  0
    0.0612    0.8908    2.2819 C   0  0  0  0  0  0  0  0  0  0  0  0
   -0.7954    0.1932    1.4100 C   0  0  0  0  0  0  0  0  0  0  0  0
   -0.8306   -1.3101    1.4850 C   0  0  0  0  0  0  0  0  0  0  0  0
   -1.0242    0.5980   -3.6072 H   0  0  0  0  0  0  0  0  0  0  0  0
   -0.6469    1.5368   -2.1668 H   0  0  0  0  0  0  0  0  0  0  0  0
   -2.2685    1.6285   -2.8792 H   0  0  0  0  0  0  0  0  0  0  0  0
   -0.9965   -0.8287   -1.5566 H   0  0  0  0  0  0  0  0  0  0  0  0
   -3.6367   -0.5080   -2.8011 H   0  0  0  0  0  0  0  0  0  0  0  0
   -3.1236   -1.8345   -2.0022 H   0  0  0  0  0  0  0  0  0  0  0  0
   -3.0152   -0.6161    0.0372 H   0  0  0  0  0  0  0  0  0  0  0  0
   -3.3865    0.9175   -0.6923 H   0  0  0  0  0  0  0  0  0  0  0  0
   -2.1571    2.9145   -0.1592 H   0  0  0  0  0  0  0  0  0  0  0  0
    0.7763    2.8208    2.9411 H   0  0  0  0  0  0  0  0  0  0  0  0
    0.6933    0.3488    2.9827 H   0  0  0  0  0  0  0  0  0  0  0  0
   -0.5798   -1.7531    0.5175 H   0  0  0  0  0  0  0  0  0  0  0  0
   -1.8219   -1.6508    1.7997 H   0  0  0  0  0  0  0  0  0  0  0  0
   -0.1065   -1.6927    2.2125 H   0  0  0  0  0  0  0  0  0  0  0  0
  1  2  1  0
  2  3  1  0
  2  4  1  0
  4  5  1  0
  5  6  2  0
  6  7  1  0
  7  8  1  0
  7  9  2  0
  9 10  1  0
 10 11  2  0
 11 12  1  0
 11  5  1  0
  1 13  1  0
  1 14  1  0
  1 15  1  0
  2 16  1  1
  3 17  1  0
  3 18  1  0
  4 19  1  0
  4 20  1  0
  6 21  1  0
  9 22  1  0
 10 23  1  0
 12 24  1  0
 12 25  1  0
 12 26  1  0
M  END
