
     RDKit          3D

 26 26  0  0  0  0  0  0  0  0999 V2000
    0.4529    1.7855   -3.0318 C   0  0  0  0  0  0  0  0  0  0  0  0
    0.2368    0.8581   -1.8362 C   0  0  2  0  0  0  0  0  0  0  0  0
   -1.1978    0.5735   -1.7236 N   0  0  0  0  0  0  0  0  0  0  0  0
    0.8217    1.4932   -0.5534 C   0  0  0  0  0  0  0  0  0  0  0  0
    0.7679    0.5878    0.6630 C   0  0  0  0  0  0  0  0  0  0  0  0
    1.6252   -0.5276    0.7037 C   0  0  0  0  0  0  0  0  0  0  0  0
    1.6167   -1.3905    1.7954 C   0  0  0  0  0  0  0  0  0  0  0  0
    2.4433   -2.4441    1.8074 F   0  0  0  0  0  0  0  0  0  0  0  0
    0.7702   -1.1745    2.8677 C   0  0  0  0  0  0  0  0  0  0  0  0
   -0.0769   -0.0750    2.8386 C   0  0  0  0  0  0  0  0  0  0  0  0
   -0.8889    0.1271    3.8869 F   0  0  0  0  0  0  0  0  0  0  0  0
   -0.1014    0.8167    1.7528 C   0  0  0  0  0  0  0  0  0  0  0  0
   -1.0342    1.9947    1.8006 C   0  0  0  0  0  0  0  0  0  0  0  0
    1.5206    1.9782   -3.1828 H   0  0  0  0  0  0  0  0  0  0  0  0
    0.0651    1.3362   -3.9530 H   0  0  0  0  0  0  0  0  0  0  0  0
   -0.0467    2.7504   -2.8893 H   0  0  0  0  0  0  0  0  0  0  0  0
    0.7492   -0.0883   -2.0452 H   0  0  0  0  0  0  0  0  0  0  0  0
   -1.3568   -0.0504   -0.9316 H   0  0  0  0  0  0  0  0  0  0  0  0
   -1.7078    1.4300   -1.5123 H   0  0  0  0  0  0  0  0  0  0  0  0
    1.8757    1.7522   -0.7255 H   0  0  0  0  0  0  0  0  0  0  0  0
    0.3260    2.4498   -0.3526 H   0  0  0  0  0  0  0  0  0  0  0  0
    2.3110   -0.7354   -0.1142 H   0  0  0  0  0  0  0  0  0  0  0  0
    0.7696   -1.8483    3.7157 H   0  0  0  0  0  0  0  0  0  0  0  0
   -1.6779    2.0116    0.9161 H   0  0  0  0  0  0  0  0  0  0  0  0
   -1.6935    1.9604    2.6739 H   0  0  0  0  0  0  0  0  0  0  0  0
   -0.4619    2.9262    1.8558 H   0  0  0  0  0  0  0  0  0  0  0  0
  1  2  1  0
  2  3  1  0
  2  4  1  0
  4  5  1  0
  5  6  2  0
  6  7  1  0
  7  8  1  0
  7  9  2  0
  9 10  1  0
 10 11  1  0
 10 12  2  0
 12 13  1  0
 12  5  1  0
  1 14  1  0
  1 15  1  0
  1 16  1  0
  2 17  1  6
  3 18  1  0
  3 19  1  0
  4 20  1  0
  4 21  1  0
  6 22  1  0
  9 23  1  0
 13 24  1  0
 13 25  1  0
 13 26  1  0
M  END
