
     RDKit          3D

 29 29  0  0  0  0  0  0  0  0999 V2000
    0.1170    0.9092    2.3479 C   0  0  0  0  0  0  0  0  0  0  0  0
    1.1695    1.5637    1.4546 C   0  0  2  0  0  0  0  0  0  0  0  0
    0.5899    2.7380    0.7976 N   0  0  0  0  0  0  0  0  0  0  0  0
    1.8320    0.5798    0.4593 C   0  0  0  0  0  0  0  0  0  0  0  0
    0.9124   -0.2408   -0.4276 C   0  0  0  0  0  0  0  0  0  0  0  0
    0.5173   -1.5138    0.0348 C   0  0  0  0  0  0  0  0  0  0  0  0
   -0.3361   -2.3422   -0.7102 C   0  0  0  0  0  0  0  0  0  0  0  0
   -0.8155   -1.8787   -1.9374 C   0  0  0  0  0  0  0  0  0  0  0  0
   -0.4303   -0.6259   -2.4143 C   0  0  0  0  0  0  0  0  0  0  0  0
    0.4438    0.1979   -1.6822 C   0  0  0  0  0  0  0  0  0  0  0  0
    0.7839    1.5425   -2.2656 C   0  0  0  0  0  0  0  0  0  0  0  0
   -0.7615   -3.6845   -0.1729 C   0  0  0  0  0  0  0  0  0  0  0  0
   -1.0781   -4.5803   -1.1503 F   0  0  0  0  0  0  0  0  0  0  0  0
   -1.8612   -3.6005    0.6261 F   0  0  0  0  0  0  0  0  0  0  0  0
    0.2010   -4.2875    0.5813 F   0  0  0  0  0  0  0  0  0  0  0  0
   -0.7654    0.5945    1.7806 H   0  0  0  0  0  0  0  0  0  0  0  0
   -0.2221    1.6062    3.1230 H   0  0  0  0  0  0  0  0  0  0  0  0
    0.5307    0.0317    2.8562 H   0  0  0  0  0  0  0  0  0  0  0  0
    1.9689    1.9337    2.1096 H   0  0  0  0  0  0  0  0  0  0  0  0
    0.2074    3.3726    1.4973 H   0  0  0  0  0  0  0  0  0  0  0  0
    1.3187    3.2523    0.3060 H   0  0  0  0  0  0  0  0  0  0  0  0
    2.5647    1.1134   -0.1579 H   0  0  0  0  0  0  0  0  0  0  0  0
    2.4485   -0.1195    1.0428 H   0  0  0  0  0  0  0  0  0  0  0  0
    0.8783   -1.8680    1.0011 H   0  0  0  0  0  0  0  0  0  0  0  0
   -1.4937   -2.4896   -2.5308 H   0  0  0  0  0  0  0  0  0  0  0  0
   -0.8220   -0.2877   -3.3724 H   0  0  0  0  0  0  0  0  0  0  0  0
    0.0805    2.2985   -1.9062 H   0  0  0  0  0  0  0  0  0  0  0  0
    0.7231    1.5166   -3.3597 H   0  0  0  0  0  0  0  0  0  0  0  0
    1.8054    1.8481   -2.0267 H   0  0  0  0  0  0  0  0  0  0  0  0
  1  2  1  0
  2  3  1  0
  2  4  1  0
  4  5  1  0
  5  6  2  0
  6  7  1  0
  7  8  2  0
  8  9  1  0
  9 10  2  0
 10 11  1  0
  7 12  1  0
 12 13  1  0
 12 14  1  0
 12 15  1  0
 10  5  1  0
  1 16  1  0
  1 17  1  0
  1 18  1  0
  2 19  1  1
  3 20  1  0
  3 21  1  0
  4 22  1  0
  4 23  1  0
  6 24  1  0
  8 25  1  0
  9 26  1  0
 11 27  1  0
 11 28  1  0
 11 29  1  0
M  END
