
     RDKit          3D

 39 40  0  0  0  0  0  0  0  0999 V2000
   -0.5449    2.1229   -3.0491 C   0  0  0  0  0  0  0  0  0  0  0  0
   -1.5662    1.9635   -1.9189 C   0  0  0  0  0  0  0  0  0  0  0  0
   -2.9625    2.2084   -2.5217 C   0  0  0  0  0  0  0  0  0  0  0  0
   -1.4824    0.5904   -1.1598 C   0  0  2  0  0  0  0  0  0  0  0  0
   -2.5036    0.5942   -0.0875 N   0  0  0  0  0  0  0  0  0  0  0  0
   -0.0424    0.2617   -0.5666 C   0  0  0  0  0  0  0  0  0  0  0  0
   -0.0231   -0.7267    0.6110 C   0  0  0  0  0  0  0  0  0  0  0  0
   -0.7394   -1.9339    0.5817 C   0  0  0  0  0  0  0  0  0  0  0  0
   -0.6771   -2.8284    1.6525 C   0  0  0  0  0  0  0  0  0  0  0  0
    0.1085   -2.5346    2.7644 C   0  0  0  0  0  0  0  0  0  0  0  0
    0.8339   -1.3466    2.8067 C   0  0  0  0  0  0  0  0  0  0  0  0
    0.7718   -0.4505    1.7375 C   0  0  0  0  0  0  0  0  0  0  0  0
    0.9951   -0.1927   -1.6003 C   0  0  0  0  0  0  0  0  0  0  0  0
    2.2878    0.3613   -1.5751 C   0  0  0  0  0  0  0  0  0  0  0  0
    3.2599   -0.0446   -2.4913 C   0  0  0  0  0  0  0  0  0  0  0  0
    2.9609   -1.0205   -3.4380 C   0  0  0  0  0  0  0  0  0  0  0  0
    1.6936   -1.5971   -3.4631 C   0  0  0  0  0  0  0  0  0  0  0  0
    0.7196   -1.1921   -2.5474 C   0  0  0  0  0  0  0  0  0  0  0  0
   -0.5832    1.2796   -3.7456 H   0  0  0  0  0  0  0  0  0  0  0  0
   -0.7362    3.0357   -3.6249 H   0  0  0  0  0  0  0  0  0  0  0  0
    0.4692    2.2245   -2.6578 H   0  0  0  0  0  0  0  0  0  0  0  0
   -1.3765    2.7705   -1.1978 H   0  0  0  0  0  0  0  0  0  0  0  0
   -3.7252    2.3336   -1.7477 H   0  0  0  0  0  0  0  0  0  0  0  0
   -3.2612    1.3796   -3.1725 H   0  0  0  0  0  0  0  0  0  0  0  0
   -2.9770    3.1273   -3.1186 H   0  0  0  0  0  0  0  0  0  0  0  0
   -1.7767   -0.2044   -1.8544 H   0  0  0  0  0  0  0  0  0  0  0  0
   -3.4353    0.7407   -0.4648 H   0  0  0  0  0  0  0  0  0  0  0  0
   -2.3174    1.3477    0.5720 H   0  0  0  0  0  0  0  0  0  0  0  0
    0.3042    1.2234   -0.1577 H   0  0  0  0  0  0  0  0  0  0  0  0
   -1.3627   -2.1819   -0.2732 H   0  0  0  0  0  0  0  0  0  0  0  0
   -1.2444   -3.7544    1.6165 H   0  0  0  0  0  0  0  0  0  0  0  0
    0.1564   -3.2321    3.5958 H   0  0  0  0  0  0  0  0  0  0  0  0
    1.4519   -1.1183    3.6707 H   0  0  0  0  0  0  0  0  0  0  0  0
    1.3543    0.4662    1.7868 H   0  0  0  0  0  0  0  0  0  0  0  0
    2.5463    1.1173   -0.8370 H   0  0  0  0  0  0  0  0  0  0  0  0
    4.2524    0.3969   -2.4609 H   0  0  0  0  0  0  0  0  0  0  0  0
    3.7184   -1.3404   -4.1483 H   0  0  0  0  0  0  0  0  0  0  0  0
    1.4641   -2.3714   -4.1905 H   0  0  0  0  0  0  0  0  0  0  0  0
   -0.2518   -1.6784   -2.5770 H   0  0  0  0  0  0  0  0  0  0  0  0
  1  2  1  0
  2  3  1  0
  2  4  1  0
  4  5  1  0
  4  6  1  0
  6  7  1  0
  7  8  2  0
  8  9  1  0
  9 10  2  0
 10 11  1  0
 11 12  2  0
  6 13  1  0
 13 14  2  0
 14 15  1  0
 15 16  2  0
 16 17  1  0
 17 18  2  0
 12  7  1  0
 18 13  1  0
  1 19  1  0
  1 20  1  0
  1 21  1  0
  2 22  1  0
  3 23  1  0
  3 24  1  0
  3 25  1  0
  4 26  1  6
  5 27  1  0
  5 28  1  0
  6 29  1  0
  8 30  1  0
  9 31  1  0
 10 32  1  0
 11 33  1  0
 12 34  1  0
 14 35  1  0
 15 36  1  0
 16 37  1  0
 17 38  1  0
 18 39  1  0
M  END
