
     RDKit          3D

 18 17  0  0  0  0  0  0  0  0999 V2000
   -2.3393    0.4375   -0.7423 N   0  0  0  0  0  0  0  0  0  0  0  0
   -0.9036    0.2964   -0.4601 C   0  0  1  0  0  0  0  0  0  0  0  0
   -0.1086    1.1650   -1.4705 C   0  0  0  0  0  0  0  0  0  0  0  0
    1.3915    0.9969   -1.5544 C   0  0  0  0  0  0  0  0  0  0  0  0
    2.1598    0.1155   -0.9015 C   0  0  0  0  0  0  0  0  0  0  0  0
   -0.7090    0.5819    1.0111 C   0  0  0  0  0  0  0  0  0  0  0  0
   -0.0579    1.6105    1.5719 C   0  0  0  0  0  0  0  0  0  0  0  0
   -2.6224    1.3929   -0.5276 H   0  0  0  0  0  0  0  0  0  0  0  0
   -2.8681   -0.1666   -0.1167 H   0  0  0  0  0  0  0  0  0  0  0  0
   -0.6421   -0.7545   -0.6345 H   0  0  0  0  0  0  0  0  0  0  0  0
   -0.4915    0.9565   -2.4797 H   0  0  0  0  0  0  0  0  0  0  0  0
   -0.3182    2.2275   -1.2874 H   0  0  0  0  0  0  0  0  0  0  0  0
    1.8836    1.6815   -2.2446 H   0  0  0  0  0  0  0  0  0  0  0  0
    3.2343    0.0995   -1.0598 H   0  0  0  0  0  0  0  0  0  0  0  0
    1.7576   -0.6075   -0.2004 H   0  0  0  0  0  0  0  0  0  0  0  0
   -1.1450   -0.1565    1.6834 H   0  0  0  0  0  0  0  0  0  0  0  0
    0.4176    2.3896    0.9858 H   0  0  0  0  0  0  0  0  0  0  0  0
    0.0172    1.6927    2.6522 H   0  0  0  0  0  0  0  0  0  0  0  0
  1  2  1  0
  2  3  1  0
  3  4  1  0
  4  5  2  3
  2  6  1  0
  6  7  2  3
  1  8  1  0
  1  9  1  0
  2 10  1  1
  3 11  1  0
  3 12  1  0
  4 13  1  0
  5 14  1  0
  5 15  1  0
  6 16  1  0
  7 17  1  0
  7 18  1  0
M  END
