
     RDKit          3D

 36 35  0  0  0  0  0  0  0  0999 V2000
   -1.3418   -1.3752   -1.0668 N   0  0  0  0  0  0  0  0  0  0  0  0
   -2.1486   -0.8185    0.0219 C   0  0  1  0  0  0  0  0  0  0  0  0
   -1.2748    0.0192    0.9714 C   0  0  0  0  0  0  0  0  0  0  0  0
   -0.2345   -0.8238    1.7217 C   0  0  0  0  0  0  0  0  0  0  0  0
    0.5361   -0.0315    2.7841 C   0  0  0  0  0  0  0  0  0  0  0  0
    1.3153    1.1895    2.2768 C   0  0  0  0  0  0  0  0  0  0  0  0
    2.3398    0.9086    1.1697 C   0  0  0  0  0  0  0  0  0  0  0  0
    3.5458    0.0733    1.5076 C   0  0  0  0  0  0  0  0  0  0  0  0
    4.0005   -0.2553    2.7234 C   0  0  0  0  0  0  0  0  0  0  0  0
   -3.3853   -0.0625   -0.5107 C   0  0  0  0  0  0  0  0  0  0  0  0
   -3.1508    1.1247   -1.4559 C   0  0  0  0  0  0  0  0  0  0  0  0
   -2.6964    2.3815   -0.7718 C   0  0  0  0  0  0  0  0  0  0  0  0
   -1.6117    3.0809   -1.1289 C   0  0  0  0  0  0  0  0  0  0  0  0
   -1.9420   -1.8563   -1.7346 H   0  0  0  0  0  0  0  0  0  0  0  0
   -0.8817   -0.6233   -1.5777 H   0  0  0  0  0  0  0  0  0  0  0  0
   -2.5349   -1.6708    0.5958 H   0  0  0  0  0  0  0  0  0  0  0  0
   -1.9184    0.5208    1.7047 H   0  0  0  0  0  0  0  0  0  0  0  0
   -0.7556    0.7992    0.4069 H   0  0  0  0  0  0  0  0  0  0  0  0
   -0.7442   -1.6547    2.2256 H   0  0  0  0  0  0  0  0  0  0  0  0
    0.4696   -1.2784    1.0162 H   0  0  0  0  0  0  0  0  0  0  0  0
    1.2176   -0.7194    3.2965 H   0  0  0  0  0  0  0  0  0  0  0  0
   -0.1730    0.3116    3.5482 H   0  0  0  0  0  0  0  0  0  0  0  0
    0.6018    1.9342    1.9027 H   0  0  0  0  0  0  0  0  0  0  0  0
    1.8141    1.6682    3.1287 H   0  0  0  0  0  0  0  0  0  0  0  0
    2.7112    1.8727    0.7987 H   0  0  0  0  0  0  0  0  0  0  0  0
    1.8318    0.4417    0.3180 H   0  0  0  0  0  0  0  0  0  0  0  0
    4.1076   -0.2848    0.6452 H   0  0  0  0  0  0  0  0  0  0  0  0
    4.8925   -0.8656    2.8307 H   0  0  0  0  0  0  0  0  0  0  0  0
    3.5156    0.0710    3.6366 H   0  0  0  0  0  0  0  0  0  0  0  0
   -3.9938    0.2657    0.3426 H   0  0  0  0  0  0  0  0  0  0  0  0
   -4.0080   -0.7887   -1.0522 H   0  0  0  0  0  0  0  0  0  0  0  0
   -4.1086    1.3582   -1.9391 H   0  0  0  0  0  0  0  0  0  0  0  0
   -2.4673    0.8437   -2.2647 H   0  0  0  0  0  0  0  0  0  0  0  0
   -3.3093    2.7463    0.0503 H   0  0  0  0  0  0  0  0  0  0  0  0
   -1.3392    3.9899   -0.6010 H   0  0  0  0  0  0  0  0  0  0  0  0
   -0.9727    2.7680   -1.9487 H   0  0  0  0  0  0  0  0  0  0  0  0
  1  2  1  0
  2  3  1  0
  3  4  1  0
  4  5  1  0
  5  6  1  0
  6  7  1  0
  7  8  1  0
  8  9  2  3
  2 10  1  0
 10 11  1  0
 11 12  1  0
 12 13  2  3
  1 14  1  0
  1 15  1  0
  2 16  1  1
  3 17  1  0
  3 18  1  0
  4 19  1  0
  4 20  1  0
  5 21  1  0
  5 22  1  0
  6 23  1  0
  6 24  1  0
  7 25  1  0
  7 26  1  0
  8 27  1  0
  9 28  1  0
  9 29  1  0
 10 30  1  0
 10 31  1  0
 11 32  1  0
 11 33  1  0
 12 34  1  0
 13 35  1  0
 13 36  1  0
M  END
