
     RDKit          3D

 35 36  0  0  0  0  0  0  0  0999 V2000
    1.1948    0.4602    2.8371 C   0  0  0  0  0  0  0  0  0  0  0  0
    1.3104   -0.3350    1.5242 C   0  0  1  0  0  0  0  0  0  0  0  0
    0.4161   -1.5089    1.6581 N   0  0  0  0  0  0  0  0  0  0  0  0
    1.1222    0.5638    0.1971 C   0  0  0  0  0  0  0  0  0  0  0  0
    2.1454    1.6401    0.2434 N   0  0  0  0  0  0  0  0  0  0  0  0
    1.4104   -0.1999   -1.1340 C   0  0  0  0  0  0  0  0  0  0  0  0
    1.0293    0.3760   -2.3704 C   0  0  0  0  0  0  0  0  0  0  0  0
    1.3010   -0.2573   -3.5855 C   0  0  0  0  0  0  0  0  0  0  0  0
    1.9757   -1.4677   -3.5876 C   0  0  0  0  0  0  0  0  0  0  0  0
    2.2400   -2.0769   -4.7504 F   0  0  0  0  0  0  0  0  0  0  0  0
    2.3902   -2.0499   -2.3988 C   0  0  0  0  0  0  0  0  0  0  0  0
    2.1188   -1.4167   -1.1808 C   0  0  0  0  0  0  0  0  0  0  0  0
   -0.3098    1.1748    0.2157 C   0  0  0  0  0  0  0  0  0  0  0  0
   -0.5479    2.4814    0.6926 C   0  0  0  0  0  0  0  0  0  0  0  0
   -1.8380    3.0173    0.7220 C   0  0  0  0  0  0  0  0  0  0  0  0
   -2.9082    2.2530    0.2807 C   0  0  0  0  0  0  0  0  0  0  0  0
   -4.1445    2.7671    0.3088 F   0  0  0  0  0  0  0  0  0  0  0  0
   -2.7146    0.9609   -0.1860 C   0  0  0  0  0  0  0  0  0  0  0  0
   -1.4253    0.4233   -0.2149 C   0  0  0  0  0  0  0  0  0  0  0  0
    1.8847    1.3094    2.8565 H   0  0  0  0  0  0  0  0  0  0  0  0
    1.4505   -0.1755    3.6935 H   0  0  0  0  0  0  0  0  0  0  0  0
    0.1807    0.8375    3.0046 H   0  0  0  0  0  0  0  0  0  0  0  0
    2.3339   -0.7312    1.5144 H   0  0  0  0  0  0  0  0  0  0  0  0
    0.3333   -1.9857    0.7619 H   0  0  0  0  0  0  0  0  0  0  0  0
   -0.5244   -1.1802    1.8833 H   0  0  0  0  0  0  0  0  0  0  0  0
    3.0675    1.2077    0.2013 H   0  0  0  0  0  0  0  0  0  0  0  0
    2.0642    2.1978   -0.6052 H   0  0  0  0  0  0  0  0  0  0  0  0
    0.5091    1.3330   -2.3960 H   0  0  0  0  0  0  0  0  0  0  0  0
    0.9938    0.1899   -4.5256 H   0  0  0  0  0  0  0  0  0  0  0  0
    2.9302   -2.9916   -2.4240 H   0  0  0  0  0  0  0  0  0  0  0  0
    2.4838   -1.9017   -0.2791 H   0  0  0  0  0  0  0  0  0  0  0  0
    0.2735    3.0935    1.0616 H   0  0  0  0  0  0  0  0  0  0  0  0
   -2.0108    4.0229    1.0919 H   0  0  0  0  0  0  0  0  0  0  0  0
   -3.5662    0.3793   -0.5245 H   0  0  0  0  0  0  0  0  0  0  0  0
   -1.2997   -0.5917   -0.5873 H   0  0  0  0  0  0  0  0  0  0  0  0
  1  2  1  0
  2  3  1  0
  2  4  1  0
  4  5  1  0
  4  6  1  0
  6  7  2  0
  7  8  1  0
  8  9  2  0
  9 10  1  0
  9 11  1  0
 11 12  2  0
  4 13  1  0
 13 14  2  0
 14 15  1  0
 15 16  2  0
 16 17  1  0
 16 18  1  0
 18 19  2  0
 12  6  1  0
 19 13  1  0
  1 20  1  0
  1 21  1  0
  1 22  1  0
  2 23  1  6
  3 24  1  0
  3 25  1  0
  5 26  1  0
  5 27  1  0
  7 28  1  0
  8 29  1  0
 11 30  1  0
 12 31  1  0
 14 32  1  0
 15 33  1  0
 18 34  1  0
 19 35  1  0
M  END
