
     RDKit          3D

 23 22  0  0  0  0  0  0  0  0999 V2000
   -2.0368    0.5507    0.3038 C   0  0  0  0  0  0  0  0  0  0  0  0
   -0.7647   -0.1041   -0.2452 C   0  0  0  0  0  0  0  0  0  0  0  0
   -0.8106   -1.6145    0.0102 C   0  0  0  0  0  0  0  0  0  0  0  0
    0.5182    0.5840    0.2951 C   0  0  2  0  0  0  0  0  0  0  0  0
    1.6859    0.0757   -0.4446 N   0  0  0  0  0  0  0  0  0  0  0  0
    0.7341    0.4098    1.8191 C   0  0  0  0  0  0  0  0  0  0  0  0
    1.8381    1.2867    2.3596 C   0  0  0  0  0  0  0  0  0  0  0  0
    2.9491    0.8209    2.9442 C   0  0  0  0  0  0  0  0  0  0  0  0
   -2.9209    0.1578   -0.2104 H   0  0  0  0  0  0  0  0  0  0  0  0
   -2.1682    0.3599    1.3732 H   0  0  0  0  0  0  0  0  0  0  0  0
   -2.0173    1.6342    0.1473 H   0  0  0  0  0  0  0  0  0  0  0  0
   -0.7851    0.0422   -1.3346 H   0  0  0  0  0  0  0  0  0  0  0  0
   -0.8651   -1.8427    1.0794 H   0  0  0  0  0  0  0  0  0  0  0  0
    0.0682   -2.1187   -0.4035 H   0  0  0  0  0  0  0  0  0  0  0  0
   -1.6940   -2.0550   -0.4653 H   0  0  0  0  0  0  0  0  0  0  0  0
    0.4406    1.6578    0.0777 H   0  0  0  0  0  0  0  0  0  0  0  0
    2.5307    0.5205   -0.0845 H   0  0  0  0  0  0  0  0  0  0  0  0
    1.6128    0.3449   -1.4243 H   0  0  0  0  0  0  0  0  0  0  0  0
    0.9372   -0.6423    2.0553 H   0  0  0  0  0  0  0  0  0  0  0  0
   -0.1788    0.6802    2.3609 H   0  0  0  0  0  0  0  0  0  0  0  0
    1.6975    2.3619    2.2719 H   0  0  0  0  0  0  0  0  0  0  0  0
    3.7067    1.5000    3.3230 H   0  0  0  0  0  0  0  0  0  0  0  0
    3.1283   -0.2443    3.0566 H   0  0  0  0  0  0  0  0  0  0  0  0
  1  2  1  0
  2  3  1  0
  2  4  1  0
  4  5  1  0
  4  6  1  0
  6  7  1  0
  7  8  2  3
  1  9  1  0
  1 10  1  0
  1 11  1  0
  2 12  1  0
  3 13  1  0
  3 14  1  0
  3 15  1  0
  4 16  1  1
  5 17  1  0
  5 18  1  0
  6 19  1  0
  6 20  1  0
  7 21  1  0
  8 22  1  0
  8 23  1  0
M  END
