
     RDKit          3D

 33 33  0  0  0  0  0  0  0  0999 V2000
    1.6394   -3.1758    1.2709 C   0  0  0  0  0  0  0  0  0  0  0  0
    1.3715   -1.7819    0.6845 C   0  0  2  0  0  0  0  0  0  0  0  0
    2.5486   -0.8201    0.7943 C   0  0  0  0  0  0  0  0  0  0  0  0
    3.6813   -0.9875    1.4901 C   0  0  0  0  0  0  0  0  0  0  0  0
    0.0736   -1.1202    1.2513 C   0  0  2  0  0  0  0  0  0  0  0  0
    0.1655   -0.9196    2.7104 N   0  0  0  0  0  0  0  0  0  0  0  0
   -1.2268   -1.9050    0.9753 C   0  0  0  0  0  0  0  0  0  0  0  0
   -1.5340   -2.1669   -0.5056 C   0  0  0  0  0  0  0  0  0  0  0  0
   -1.7046   -0.9137   -1.3295 C   0  0  0  0  0  0  0  0  0  0  0  0
   -2.7838   -0.0495   -1.0980 C   0  0  0  0  0  0  0  0  0  0  0  0
   -2.9368    1.1132   -1.8550 C   0  0  0  0  0  0  0  0  0  0  0  0
   -2.0154    1.4224   -2.8532 C   0  0  0  0  0  0  0  0  0  0  0  0
   -0.9426    0.5676   -3.0973 C   0  0  0  0  0  0  0  0  0  0  0  0
   -0.7885   -0.5958   -2.3413 C   0  0  0  0  0  0  0  0  0  0  0  0
    2.5452   -3.6139    0.8363 H   0  0  0  0  0  0  0  0  0  0  0  0
    0.8182   -3.8631    1.0454 H   0  0  0  0  0  0  0  0  0  0  0  0
    1.7668   -3.1487    2.3581 H   0  0  0  0  0  0  0  0  0  0  0  0
    1.2355   -1.9267   -0.3942 H   0  0  0  0  0  0  0  0  0  0  0  0
    2.4375    0.1041    0.2265 H   0  0  0  0  0  0  0  0  0  0  0  0
    3.8747   -1.8740    2.0849 H   0  0  0  0  0  0  0  0  0  0  0  0
    4.4520   -0.2223    1.4820 H   0  0  0  0  0  0  0  0  0  0  0  0
   -0.0255   -0.1237    0.8014 H   0  0  0  0  0  0  0  0  0  0  0  0
    1.0306   -0.4205    2.9205 H   0  0  0  0  0  0  0  0  0  0  0  0
   -0.5935   -0.3115    3.0147 H   0  0  0  0  0  0  0  0  0  0  0  0
   -1.1994   -2.8712    1.4951 H   0  0  0  0  0  0  0  0  0  0  0  0
   -2.0708   -1.3578    1.4179 H   0  0  0  0  0  0  0  0  0  0  0  0
   -2.4652   -2.7445   -0.5758 H   0  0  0  0  0  0  0  0  0  0  0  0
   -0.7634   -2.8113   -0.9440 H   0  0  0  0  0  0  0  0  0  0  0  0
   -3.5154   -0.2787   -0.3263 H   0  0  0  0  0  0  0  0  0  0  0  0
   -3.7770    1.7764   -1.6669 H   0  0  0  0  0  0  0  0  0  0  0  0
   -2.1357    2.3269   -3.4433 H   0  0  0  0  0  0  0  0  0  0  0  0
   -0.2261    0.8053   -3.8792 H   0  0  0  0  0  0  0  0  0  0  0  0
    0.0532   -1.2521   -2.5503 H   0  0  0  0  0  0  0  0  0  0  0  0
  1  2  1  0
  2  3  1  0
  3  4  2  3
  2  5  1  0
  5  6  1  0
  5  7  1  0
  7  8  1  0
  8  9  1  0
  9 10  2  0
 10 11  1  0
 11 12  2  0
 12 13  1  0
 13 14  2  0
 14  9  1  0
  1 15  1  0
  1 16  1  0
  1 17  1  0
  2 18  1  6
  3 19  1  0
  4 20  1  0
  4 21  1  0
  5 22  1  6
  6 23  1  0
  6 24  1  0
  7 25  1  0
  7 26  1  0
  8 27  1  0
  8 28  1  0
 10 29  1  0
 11 30  1  0
 12 31  1  0
 13 32  1  0
 14 33  1  0
M  END
