
     RDKit          3D

 32 32  0  0  0  0  0  0  0  0999 V2000
   -1.8339   -1.8136   -3.0136 C   0  0  0  0  0  0  0  0  0  0  0  0
   -0.9620   -0.6952   -2.4611 C   0  0  0  0  0  0  0  0  0  0  0  0
   -1.0617   -0.6170   -0.9338 C   0  0  0  0  0  0  0  0  0  0  0  0
   -0.2522    0.5215   -0.2774 C   0  0  2  0  0  0  0  0  0  0  0  0
   -0.7426    1.8225   -0.7416 N   0  0  0  0  0  0  0  0  0  0  0  0
    1.2607    0.3755   -0.5326 C   0  0  0  0  0  0  0  0  0  0  0  0
    2.1503    1.3524    0.2505 C   0  0  0  0  0  0  0  0  0  0  0  0
    2.0716    1.1909    1.7493 C   0  0  0  0  0  0  0  0  0  0  0  0
    2.5558    0.0302    2.3683 C   0  0  0  0  0  0  0  0  0  0  0  0
    2.4763   -0.1205    3.7537 C   0  0  0  0  0  0  0  0  0  0  0  0
    1.9154    0.8881    4.5343 C   0  0  0  0  0  0  0  0  0  0  0  0
    1.4362    2.0489    3.9308 C   0  0  0  0  0  0  0  0  0  0  0  0
    1.5149    2.2011    2.5453 C   0  0  0  0  0  0  0  0  0  0  0  0
   -1.7470   -1.8582   -4.1037 H   0  0  0  0  0  0  0  0  0  0  0  0
   -1.5302   -2.7843   -2.6086 H   0  0  0  0  0  0  0  0  0  0  0  0
   -2.8870   -1.6503   -2.7635 H   0  0  0  0  0  0  0  0  0  0  0  0
   -1.2743    0.2518   -2.9146 H   0  0  0  0  0  0  0  0  0  0  0  0
    0.0736   -0.8787   -2.7659 H   0  0  0  0  0  0  0  0  0  0  0  0
   -2.1175   -0.5075   -0.6510 H   0  0  0  0  0  0  0  0  0  0  0  0
   -0.7321   -1.5729   -0.5059 H   0  0  0  0  0  0  0  0  0  0  0  0
   -0.4419    0.4576    0.8007 H   0  0  0  0  0  0  0  0  0  0  0  0
   -1.7510    1.8734   -0.5980 H   0  0  0  0  0  0  0  0  0  0  0  0
   -0.3441    2.5611   -0.1642 H   0  0  0  0  0  0  0  0  0  0  0  0
    1.4717    0.5223   -1.5996 H   0  0  0  0  0  0  0  0  0  0  0  0
    1.5628   -0.6539   -0.3007 H   0  0  0  0  0  0  0  0  0  0  0  0
    3.1950    1.1977   -0.0500 H   0  0  0  0  0  0  0  0  0  0  0  0
    1.9175    2.3857   -0.0333 H   0  0  0  0  0  0  0  0  0  0  0  0
    3.0018   -0.7640    1.7738 H   0  0  0  0  0  0  0  0  0  0  0  0
    2.8546   -1.0244    4.2237 H   0  0  0  0  0  0  0  0  0  0  0  0
    1.8551    0.7709    5.6130 H   0  0  0  0  0  0  0  0  0  0  0  0
    1.0027    2.8379    4.5396 H   0  0  0  0  0  0  0  0  0  0  0  0
    1.1393    3.1154    2.0925 H   0  0  0  0  0  0  0  0  0  0  0  0
  1  2  1  0
  2  3  1  0
  3  4  1  0
  4  5  1  0
  4  6  1  0
  6  7  1  0
  7  8  1  0
  8  9  2  0
  9 10  1  0
 10 11  2  0
 11 12  1  0
 12 13  2  0
 13  8  1  0
  1 14  1  0
  1 15  1  0
  1 16  1  0
  2 17  1  0
  2 18  1  0
  3 19  1  0
  3 20  1  0
  4 21  1  1
  5 22  1  0
  5 23  1  0
  6 24  1  0
  6 25  1  0
  7 26  1  0
  7 27  1  0
  9 28  1  0
 10 29  1  0
 11 30  1  0
 12 31  1  0
 13 32  1  0
M  END
