
     RDKit          3D

 42 43  0  0  0  0  0  0  0  0999 V2000
    1.6799    0.9088   -2.6536 C   0  0  0  0  0  0  0  0  0  0  0  0
    0.4828    1.2775   -1.7888 C   0  0  0  0  0  0  0  0  0  0  0  0
    0.4428    0.5788   -0.4066 C   0  0  2  0  0  0  0  0  0  0  0  0
    0.2717   -0.9794   -0.4228 C   0  0  2  0  0  0  0  0  0  0  0  0
    1.5080   -1.6512   -0.8609 N   0  0  0  0  0  0  0  0  0  0  0  0
   -0.9198   -1.4513   -1.2862 C   0  0  0  0  0  0  0  0  0  0  0  0
   -1.2659   -2.9443   -1.1628 C   0  0  0  0  0  0  0  0  0  0  0  0
   -1.5953   -3.4093    0.2363 C   0  0  0  0  0  0  0  0  0  0  0  0
   -0.9230   -4.5091    0.7879 C   0  0  0  0  0  0  0  0  0  0  0  0
   -1.2202   -4.9492    2.0791 C   0  0  0  0  0  0  0  0  0  0  0  0
   -2.1963   -4.2993    2.8310 C   0  0  0  0  0  0  0  0  0  0  0  0
   -2.8798   -3.2128    2.2902 C   0  0  0  0  0  0  0  0  0  0  0  0
   -2.5857   -2.7733    0.9982 C   0  0  0  0  0  0  0  0  0  0  0  0
   -0.5852    1.2073    0.5426 C   0  0  0  0  0  0  0  0  0  0  0  0
   -1.8084    1.7341    0.1016 C   0  0  0  0  0  0  0  0  0  0  0  0
   -2.7233    2.2752    1.0087 C   0  0  0  0  0  0  0  0  0  0  0  0
   -2.4320    2.2950    2.3701 C   0  0  0  0  0  0  0  0  0  0  0  0
   -1.2257    1.7726    2.8270 C   0  0  0  0  0  0  0  0  0  0  0  0
   -0.3106    1.2325    1.9214 C   0  0  0  0  0  0  0  0  0  0  0  0
    1.7260    1.5694   -3.5259 H   0  0  0  0  0  0  0  0  0  0  0  0
    2.6181    1.0170   -2.1009 H   0  0  0  0  0  0  0  0  0  0  0  0
    1.6052   -0.1150   -3.0294 H   0  0  0  0  0  0  0  0  0  0  0  0
   -0.4322    1.0834   -2.3594 H   0  0  0  0  0  0  0  0  0  0  0  0
    0.5174    2.3639   -1.6304 H   0  0  0  0  0  0  0  0  0  0  0  0
    1.4198    0.7932    0.0543 H   0  0  0  0  0  0  0  0  0  0  0  0
    0.1054   -1.3020    0.6123 H   0  0  0  0  0  0  0  0  0  0  0  0
    1.4281   -2.6499   -0.6709 H   0  0  0  0  0  0  0  0  0  0  0  0
    2.2854   -1.3286   -0.2849 H   0  0  0  0  0  0  0  0  0  0  0  0
   -1.8112   -0.8665   -1.0360 H   0  0  0  0  0  0  0  0  0  0  0  0
   -0.7139   -1.2470   -2.3448 H   0  0  0  0  0  0  0  0  0  0  0  0
   -2.1347   -3.1588   -1.7986 H   0  0  0  0  0  0  0  0  0  0  0  0
   -0.4443   -3.5424   -1.5753 H   0  0  0  0  0  0  0  0  0  0  0  0
   -0.1613   -5.0331    0.2152 H   0  0  0  0  0  0  0  0  0  0  0  0
   -0.6910   -5.8014    2.4972 H   0  0  0  0  0  0  0  0  0  0  0  0
   -2.4274   -4.6415    3.8360 H   0  0  0  0  0  0  0  0  0  0  0  0
   -3.6440   -2.7055    2.8731 H   0  0  0  0  0  0  0  0  0  0  0  0
   -3.1355   -1.9258    0.5951 H   0  0  0  0  0  0  0  0  0  0  0  0
   -2.0742    1.7267   -0.9521 H   0  0  0  0  0  0  0  0  0  0  0  0
   -3.6658    2.6804    0.6499 H   0  0  0  0  0  0  0  0  0  0  0  0
   -3.1448    2.7160    3.0738 H   0  0  0  0  0  0  0  0  0  0  0  0
   -0.9957    1.7831    3.8890 H   0  0  0  0  0  0  0  0  0  0  0  0
    0.6237    0.8242    2.3015 H   0  0  0  0  0  0  0  0  0  0  0  0
  1  2  1  0
  2  3  1  0
  3  4  1  0
  4  5  1  0
  4  6  1  0
  6  7  1  0
  7  8  1  0
  8  9  2  0
  9 10  1  0
 10 11  2  0
 11 12  1  0
 12 13  2  0
  3 14  1  0
 14 15  2  0
 15 16  1  0
 16 17  2  0
 17 18  1  0
 18 19  2  0
 13  8  1  0
 19 14  1  0
  1 20  1  0
  1 21  1  0
  1 22  1  0
  2 23  1  0
  2 24  1  0
  3 25  1  1
  4 26  1  1
  5 27  1  0
  5 28  1  0
  6 29  1  0
  6 30  1  0
  7 31  1  0
  7 32  1  0
  9 33  1  0
 10 34  1  0
 11 35  1  0
 12 36  1  0
 13 37  1  0
 15 38  1  0
 16 39  1  0
 17 40  1  0
 18 41  1  0
 19 42  1  0
M  END
