
     RDKit          3D

 40 41  0  0  0  0  0  0  0  0999 V2000
    1.4939    0.4143    1.5340 N   0  0  0  0  0  0  0  0  0  0  0  0
    0.3121    0.1654    2.3524 C   0  0  1  0  0  0  0  0  0  0  0  0
   -0.7617    1.2620    2.1585 C   0  0  0  0  0  0  0  0  0  0  0  0
   -1.2440    1.5096    0.7183 C   0  0  0  0  0  0  0  0  0  0  0  0
   -0.4301    2.5317   -0.0402 C   0  0  0  0  0  0  0  0  0  0  0  0
   -0.5196    3.8938    0.2798 C   0  0  0  0  0  0  0  0  0  0  0  0
    0.2339    4.8375   -0.4203 C   0  0  0  0  0  0  0  0  0  0  0  0
    1.0828    4.4301   -1.4474 C   0  0  0  0  0  0  0  0  0  0  0  0
    1.1780    3.0793   -1.7758 C   0  0  0  0  0  0  0  0  0  0  0  0
    0.4239    2.1350   -1.0775 C   0  0  0  0  0  0  0  0  0  0  0  0
   -0.1068   -1.2596    2.1104 C   0  0  0  0  0  0  0  0  0  0  0  0
   -1.3407   -1.7190    1.8425 C   0  0  0  0  0  0  0  0  0  0  0  0
   -1.6090   -3.4130    1.5591 S   0  0  0  0  0  6  0  0  0  0  0  0
   -2.9836   -3.7155    1.9140 O   0  0  0  0  0  0  0  0  0  0  0  0
   -0.5212   -4.2053    2.1032 O   0  0  0  0  0  0  0  0  0  0  0  0
   -1.4898   -3.5052   -0.2162 C   0  0  0  0  0  0  0  0  0  0  0  0
   -2.6526   -3.5242   -0.9921 C   0  0  0  0  0  0  0  0  0  0  0  0
   -2.5475   -3.6013   -2.3809 C   0  0  0  0  0  0  0  0  0  0  0  0
   -1.2904   -3.6672   -2.9848 C   0  0  0  0  0  0  0  0  0  0  0  0
   -0.1330   -3.6628   -2.2041 C   0  0  0  0  0  0  0  0  0  0  0  0
   -0.2285   -3.5868   -0.8149 C   0  0  0  0  0  0  0  0  0  0  0  0
    2.3124   -0.0003    1.9769 H   0  0  0  0  0  0  0  0  0  0  0  0
    1.6804    1.4173    1.4886 H   0  0  0  0  0  0  0  0  0  0  0  0
    0.6239    0.2248    3.4037 H   0  0  0  0  0  0  0  0  0  0  0  0
   -0.3879    2.1988    2.5931 H   0  0  0  0  0  0  0  0  0  0  0  0
   -1.6351    0.9905    2.7668 H   0  0  0  0  0  0  0  0  0  0  0  0
   -2.2755    1.8854    0.7574 H   0  0  0  0  0  0  0  0  0  0  0  0
   -1.2989    0.5753    0.1488 H   0  0  0  0  0  0  0  0  0  0  0  0
   -1.1816    4.2282    1.0753 H   0  0  0  0  0  0  0  0  0  0  0  0
    0.1562    5.8913   -0.1660 H   0  0  0  0  0  0  0  0  0  0  0  0
    1.6689    5.1647   -1.9930 H   0  0  0  0  0  0  0  0  0  0  0  0
    1.8406    2.7587   -2.5752 H   0  0  0  0  0  0  0  0  0  0  0  0
    0.5164    1.0824   -1.3386 H   0  0  0  0  0  0  0  0  0  0  0  0
    0.7080   -1.9821    2.1811 H   0  0  0  0  0  0  0  0  0  0  0  0
   -2.2141   -1.0884    1.7750 H   0  0  0  0  0  0  0  0  0  0  0  0
   -3.6360   -3.4841   -0.5292 H   0  0  0  0  0  0  0  0  0  0  0  0
   -3.4454   -3.6162   -2.9942 H   0  0  0  0  0  0  0  0  0  0  0  0
   -1.2125   -3.7302   -4.0678 H   0  0  0  0  0  0  0  0  0  0  0  0
    0.8431   -3.7238   -2.6794 H   0  0  0  0  0  0  0  0  0  0  0  0
    0.6763   -3.5933   -0.2112 H   0  0  0  0  0  0  0  0  0  0  0  0
  1  2  1  0
  2  3  1  0
  3  4  1  0
  4  5  1  0
  5  6  2  0
  6  7  1  0
  7  8  2  0
  8  9  1  0
  9 10  2  0
  2 11  1  0
 11 12  2  3
 12 13  1  0
 13 14  2  0
 13 15  2  0
 13 16  1  0
 16 17  2  0
 17 18  1  0
 18 19  2  0
 19 20  1  0
 20 21  2  0
 10  5  1  0
 21 16  1  0
  1 22  1  0
  1 23  1  0
  2 24  1  1
  3 25  1  0
  3 26  1  0
  4 27  1  0
  4 28  1  0
  6 29  1  0
  7 30  1  0
  8 31  1  0
  9 32  1  0
 10 33  1  0
 11 34  1  0
 12 35  1  0
 17 36  1  0
 18 37  1  0
 19 38  1  0
 20 39  1  0
 21 40  1  0
M  END
