
     RDKit          3D

 41 42  0  0  0  0  0  0  0  0999 V2000
   -0.9967   -3.1993   -0.1314 C   0  0  0  0  0  0  0  0  0  0  0  0
   -0.6125   -2.6979    1.2565 C   0  0  0  0  0  0  0  0  0  0  0  0
    0.8705   -2.9853    1.5188 C   0  0  0  0  0  0  0  0  0  0  0  0
   -1.0570   -1.2429    1.6271 C   0  0  2  0  0  0  0  0  0  0  0  0
   -2.5131   -1.2612    1.9818 N   0  0  0  0  0  0  0  0  0  0  0  0
   -0.6519    0.0429    0.7152 C   0  0  0  0  0  0  0  0  0  0  0  0
   -1.2503    1.2182    1.4519 N   0  0  0  0  0  0  0  0  0  0  0  0
   -1.2667    0.1814   -0.7102 C   0  0  0  0  0  0  0  0  0  0  0  0
   -2.4442   -0.4766   -1.0999 C   0  0  0  0  0  0  0  0  0  0  0  0
   -3.0130   -0.2836   -2.3646 C   0  0  0  0  0  0  0  0  0  0  0  0
   -2.4374    0.6049   -3.2650 C   0  0  0  0  0  0  0  0  0  0  0  0
   -1.3052    1.3175   -2.8926 C   0  0  0  0  0  0  0  0  0  0  0  0
   -0.7409    1.1214   -1.6284 C   0  0  0  0  0  0  0  0  0  0  0  0
    0.8962    0.1834    0.7476 C   0  0  0  0  0  0  0  0  0  0  0  0
    1.7111   -0.2945   -0.2977 C   0  0  0  0  0  0  0  0  0  0  0  0
    3.1028   -0.1679   -0.2521 C   0  0  0  0  0  0  0  0  0  0  0  0
    3.7145    0.4260    0.8471 C   0  0  0  0  0  0  0  0  0  0  0  0
    2.9367    0.8890    1.9033 C   0  0  0  0  0  0  0  0  0  0  0  0
    1.5456    0.7654    1.8560 C   0  0  0  0  0  0  0  0  0  0  0  0
   -2.0804   -3.1887   -0.2726 H   0  0  0  0  0  0  0  0  0  0  0  0
   -0.5200   -2.6152   -0.9226 H   0  0  0  0  0  0  0  0  0  0  0  0
   -0.6760   -4.2394   -0.2632 H   0  0  0  0  0  0  0  0  0  0  0  0
   -1.1339   -3.3613    1.9639 H   0  0  0  0  0  0  0  0  0  0  0  0
    1.0239   -4.0648    1.6367 H   0  0  0  0  0  0  0  0  0  0  0  0
    1.5087   -2.6766    0.6909 H   0  0  0  0  0  0  0  0  0  0  0  0
    1.2194   -2.5087    2.4400 H   0  0  0  0  0  0  0  0  0  0  0  0
   -0.5773   -1.0587    2.6017 H   0  0  0  0  0  0  0  0  0  0  0  0
   -2.6643   -1.9723    2.6967 H   0  0  0  0  0  0  0  0  0  0  0  0
   -2.6993   -0.3715    2.4505 H   0  0  0  0  0  0  0  0  0  0  0  0
   -2.2535    1.1842    1.2645 H   0  0  0  0  0  0  0  0  0  0  0  0
   -0.9283    2.0603    0.9754 H   0  0  0  0  0  0  0  0  0  0  0  0
   -2.9637   -1.1461   -0.4214 H   0  0  0  0  0  0  0  0  0  0  0  0
   -3.9173   -0.8230   -2.6354 H   0  0  0  0  0  0  0  0  0  0  0  0
   -2.8824    0.7559   -4.2444 H   0  0  0  0  0  0  0  0  0  0  0  0
   -0.8631    2.0357   -3.5781 H   0  0  0  0  0  0  0  0  0  0  0  0
    0.1248    1.7266   -1.3626 H   0  0  0  0  0  0  0  0  0  0  0  0
    1.2704   -0.7871   -1.1628 H   0  0  0  0  0  0  0  0  0  0  0  0
    3.7071   -0.5424   -1.0743 H   0  0  0  0  0  0  0  0  0  0  0  0
    4.7962    0.5214    0.8838 H   0  0  0  0  0  0  0  0  0  0  0  0
    3.4098    1.3463    2.7684 H   0  0  0  0  0  0  0  0  0  0  0  0
    0.9646    1.1296    2.7020 H   0  0  0  0  0  0  0  0  0  0  0  0
  1  2  1  0
  2  3  1  0
  2  4  1  0
  4  5  1  0
  4  6  1  0
  6  7  1  0
  6  8  1  0
  8  9  2  0
  9 10  1  0
 10 11  2  0
 11 12  1  0
 12 13  2  0
  6 14  1  0
 14 15  2  0
 15 16  1  0
 16 17  2  0
 17 18  1  0
 18 19  2  0
 13  8  1  0
 19 14  1  0
  1 20  1  0
  1 21  1  0
  1 22  1  0
  2 23  1  0
  3 24  1  0
  3 25  1  0
  3 26  1  0
  4 27  1  1
  5 28  1  0
  5 29  1  0
  7 30  1  0
  7 31  1  0
  9 32  1  0
 10 33  1  0
 11 34  1  0
 12 35  1  0
 13 36  1  0
 15 37  1  0
 16 38  1  0
 17 39  1  0
 18 40  1  0
 19 41  1  0
M  END
