
     RDKit          3D

 28 29  0  0  0  0  0  0  0  0999 V2000
    0.1687   -2.6206   -1.8228 N   0  0  0  0  0  0  0  0  0  0  0  0
    1.2756   -1.9746   -2.5607 C   0  0  1  0  0  0  0  0  0  0  0  0
    2.2663   -1.2460   -1.6250 C   0  0  0  0  0  0  0  0  0  0  0  0
    1.6468   -0.0660   -0.9259 C   0  0  0  0  0  0  0  0  0  0  0  0
    1.4716    1.2144   -1.4074 C   0  0  0  0  0  0  0  0  0  0  0  0
    0.8429    2.0660   -0.4531 C   0  0  0  0  0  0  0  0  0  0  0  0
    0.5511    1.4179    0.7329 C   0  0  0  0  0  0  0  0  0  0  0  0
    1.0645   -0.2179    0.6759 S   0  0  0  0  0  0  0  0  0  0  0  0
   -0.0726    1.9645    1.9455 C   0  0  0  0  0  0  0  0  0  0  0  0
   -1.0933    1.2784    2.6205 C   0  0  0  0  0  0  0  0  0  0  0  0
   -1.6829    1.8214    3.7655 C   0  0  0  0  0  0  0  0  0  0  0  0
   -1.2615    3.0582    4.2484 C   0  0  0  0  0  0  0  0  0  0  0  0
   -0.2524    3.7540    3.5871 C   0  0  0  0  0  0  0  0  0  0  0  0
    0.3366    3.2116    2.4417 C   0  0  0  0  0  0  0  0  0  0  0  0
    2.0251   -2.9580   -3.3813 C   0  0  0  0  0  0  0  0  0  0  0  0
    2.6406   -3.7162   -4.0101 N   0  0  0  0  0  0  0  0  0  0  0  0
   -0.2940   -1.9169   -1.2448 H   0  0  0  0  0  0  0  0  0  0  0  0
    0.5530   -3.3009   -1.1660 H   0  0  0  0  0  0  0  0  0  0  0  0
    0.8231   -1.2443   -3.2430 H   0  0  0  0  0  0  0  0  0  0  0  0
    2.6885   -1.9498   -0.8943 H   0  0  0  0  0  0  0  0  0  0  0  0
    3.1225   -0.8806   -2.2098 H   0  0  0  0  0  0  0  0  0  0  0  0
    1.7777    1.5341   -2.3968 H   0  0  0  0  0  0  0  0  0  0  0  0
    0.6091    3.1088   -0.6328 H   0  0  0  0  0  0  0  0  0  0  0  0
   -1.4492    0.3173    2.2567 H   0  0  0  0  0  0  0  0  0  0  0  0
   -2.4729    1.2782    4.2778 H   0  0  0  0  0  0  0  0  0  0  0  0
   -1.7198    3.4795    5.1394 H   0  0  0  0  0  0  0  0  0  0  0  0
    0.0793    4.7185    3.9629 H   0  0  0  0  0  0  0  0  0  0  0  0
    1.1293    3.7678    1.9464 H   0  0  0  0  0  0  0  0  0  0  0  0
  1  2  1  0
  2  3  1  0
  3  4  1  0
  4  5  2  0
  5  6  1  0
  6  7  2  0
  7  8  1  0
  7  9  1  0
  9 10  2  0
 10 11  1  0
 11 12  2  0
 12 13  1  0
 13 14  2  0
  2 15  1  0
 15 16  3  0
  8  4  1  0
 14  9  1  0
  1 17  1  0
  1 18  1  0
  2 19  1  6
  3 20  1  0
  3 21  1  0
  5 22  1  0
  6 23  1  0
 10 24  1  0
 11 25  1  0
 12 26  1  0
 13 27  1  0
 14 28  1  0
M  END
