
     RDKit          3D

 29 29  0  0  0  0  0  0  0  0999 V2000
    2.7813    0.3919   -0.8268 C   0  0  0  0  0  0  0  0  0  0  0  0
    2.4275   -0.4128    0.4279 C   0  0  0  0  0  0  0  0  0  0  0  0
    1.9502   -1.8116    0.0261 C   0  0  0  0  0  0  0  0  0  0  0  0
    1.4454    0.3079    1.3973 C   0  0  1  0  0  0  0  0  0  0  0  0
    2.1366    1.4419    2.0439 N   0  0  0  0  0  0  0  0  0  0  0  0
    0.1327    0.8527    0.7789 C   0  0  0  0  0  0  0  0  0  0  0  0
   -0.8770   -0.1833    0.3425 C   0  0  0  0  0  0  0  0  0  0  0  0
   -1.4389   -1.0712    1.2720 C   0  0  0  0  0  0  0  0  0  0  0  0
   -2.3807   -2.0200    0.8675 C   0  0  0  0  0  0  0  0  0  0  0  0
   -2.7736   -2.0797   -0.4671 C   0  0  0  0  0  0  0  0  0  0  0  0
   -3.9329   -3.2492   -0.9660 Cl  0  0  0  0  0  0  0  0  0  0  0  0
   -2.2373   -1.1953   -1.3996 C   0  0  0  0  0  0  0  0  0  0  0  0
   -1.2954   -0.2464   -0.9950 C   0  0  0  0  0  0  0  0  0  0  0  0
    1.9135    0.5277   -1.4794 H   0  0  0  0  0  0  0  0  0  0  0  0
    3.5492   -0.1296   -1.4092 H   0  0  0  0  0  0  0  0  0  0  0  0
    3.1802    1.3789   -0.5753 H   0  0  0  0  0  0  0  0  0  0  0  0
    3.3658   -0.5708    0.9795 H   0  0  0  0  0  0  0  0  0  0  0  0
    1.1300   -1.7795   -0.6945 H   0  0  0  0  0  0  0  0  0  0  0  0
    1.6270   -2.3853    0.9006 H   0  0  0  0  0  0  0  0  0  0  0  0
    2.7679   -2.3676   -0.4467 H   0  0  0  0  0  0  0  0  0  0  0  0
    1.1951   -0.3899    2.2055 H   0  0  0  0  0  0  0  0  0  0  0  0
    2.3964    2.1386    1.3472 H   0  0  0  0  0  0  0  0  0  0  0  0
    3.0093    1.1181    2.4602 H   0  0  0  0  0  0  0  0  0  0  0  0
   -0.3796    1.4824    1.5213 H   0  0  0  0  0  0  0  0  0  0  0  0
    0.3616    1.5293   -0.0541 H   0  0  0  0  0  0  0  0  0  0  0  0
   -1.1510   -1.0257    2.3204 H   0  0  0  0  0  0  0  0  0  0  0  0
   -2.8050   -2.7035    1.5979 H   0  0  0  0  0  0  0  0  0  0  0  0
   -2.5481   -1.2368   -2.4399 H   0  0  0  0  0  0  0  0  0  0  0  0
   -0.8872    0.4405   -1.7333 H   0  0  0  0  0  0  0  0  0  0  0  0
  1  2  1  0
  2  3  1  0
  2  4  1  0
  4  5  1  0
  4  6  1  0
  6  7  1  0
  7  8  2  0
  8  9  1  0
  9 10  2  0
 10 11  1  0
 10 12  1  0
 12 13  2  0
 13  7  1  0
  1 14  1  0
  1 15  1  0
  1 16  1  0
  2 17  1  0
  3 18  1  0
  3 19  1  0
  3 20  1  0
  4 21  1  1
  5 22  1  0
  5 23  1  0
  6 24  1  0
  6 25  1  0
  8 26  1  0
  9 27  1  0
 12 28  1  0
 13 29  1  0
M  END
