
     RDKit          3D

 24 24  0  0  0  0  0  0  0  0999 V2000
    0.2755    2.0386   -0.0814 N   0  0  0  0  0  0  0  0  0  0  0  0
    1.4945    1.2391   -0.3172 C   0  0  1  0  0  0  0  0  0  0  0  0
    2.2060    0.9829    1.0251 C   0  0  0  0  0  0  0  0  0  0  0  0
    3.5161    0.3482    0.8331 C   0  0  0  0  0  0  0  0  0  0  0  0
    4.5423   -0.1680    0.6681 N   0  0  0  0  0  0  0  0  0  0  0  0
    1.2001   -0.0411   -1.1450 C   0  0  0  0  0  0  0  0  0  0  0  0
    0.3378   -1.0816   -0.4680 C   0  0  0  0  0  0  0  0  0  0  0  0
    0.9243   -2.1498    0.2258 C   0  0  0  0  0  0  0  0  0  0  0  0
    0.1290   -3.1034    0.8634 C   0  0  0  0  0  0  0  0  0  0  0  0
   -1.2594   -3.0046    0.8088 C   0  0  0  0  0  0  0  0  0  0  0  0
   -1.8543   -1.9561    0.1108 C   0  0  0  0  0  0  0  0  0  0  0  0
   -1.0607   -1.0013   -0.5273 C   0  0  0  0  0  0  0  0  0  0  0  0
   -0.1906    2.2200   -0.9709 H   0  0  0  0  0  0  0  0  0  0  0  0
   -0.3883    1.4926    0.4716 H   0  0  0  0  0  0  0  0  0  0  0  0
    2.1541    1.8653   -0.9330 H   0  0  0  0  0  0  0  0  0  0  0  0
    1.5850    0.3702    1.6886 H   0  0  0  0  0  0  0  0  0  0  0  0
    2.3582    1.9386    1.5433 H   0  0  0  0  0  0  0  0  0  0  0  0
    0.7193    0.2453   -2.0909 H   0  0  0  0  0  0  0  0  0  0  0  0
    2.1467   -0.5067   -1.4494 H   0  0  0  0  0  0  0  0  0  0  0  0
    2.0067   -2.2561    0.2705 H   0  0  0  0  0  0  0  0  0  0  0  0
    0.5946   -3.9276    1.3982 H   0  0  0  0  0  0  0  0  0  0  0  0
   -1.8773   -3.7500    1.3027 H   0  0  0  0  0  0  0  0  0  0  0  0
   -2.9378   -1.8857    0.0584 H   0  0  0  0  0  0  0  0  0  0  0  0
   -1.5450   -0.1986   -1.0787 H   0  0  0  0  0  0  0  0  0  0  0  0
  1  2  1  0
  2  3  1  0
  3  4  1  0
  4  5  3  0
  2  6  1  0
  6  7  1  0
  7  8  2  0
  8  9  1  0
  9 10  2  0
 10 11  1  0
 11 12  2  0
 12  7  1  0
  1 13  1  0
  1 14  1  0
  2 15  1  6
  3 16  1  0
  3 17  1  0
  6 18  1  0
  6 19  1  0
  8 20  1  0
  9 21  1  0
 10 22  1  0
 11 23  1  0
 12 24  1  0
M  END
