
     RDKit          3D

 27 27  0  0  0  0  0  0  0  0999 V2000
   -1.5928   -1.9878   -1.2447 N   0  0  0  0  0  0  0  0  0  0  0  0
   -1.4640   -1.8317    0.2313 C   0  0  2  0  0  0  0  0  0  0  0  0
   -0.1956   -1.0661    0.6516 C   0  0  0  0  0  0  0  0  0  0  0  0
   -0.1381    0.3495    0.1207 C   0  0  0  0  0  0  0  0  0  0  0  0
    0.7643    0.6936   -0.8964 C   0  0  0  0  0  0  0  0  0  0  0  0
    0.8141    2.0020   -1.4065 C   0  0  0  0  0  0  0  0  0  0  0  0
   -0.0451    2.9722   -0.8711 C   0  0  0  0  0  0  0  0  0  0  0  0
   -0.9425    2.6392    0.1429 C   0  0  0  0  0  0  0  0  0  0  0  0
   -0.9890    1.3355    0.6360 C   0  0  0  0  0  0  0  0  0  0  0  0
    1.8053    2.3633   -2.4855 C   0  0  0  0  0  0  0  0  0  0  0  0
    1.4076    3.4193   -3.2492 F   0  0  0  0  0  0  0  0  0  0  0  0
    2.0331    1.3416   -3.3586 F   0  0  0  0  0  0  0  0  0  0  0  0
    3.0229    2.7026   -1.9809 F   0  0  0  0  0  0  0  0  0  0  0  0
   -1.4844   -3.2307    0.8785 C   0  0  0  0  0  0  0  0  0  0  0  0
   -2.4311   -4.0669    0.3488 N   0  0  0  0  0  0  0  0  0  0  0  0
   -0.7673   -3.5866    1.8056 O   0  0  0  0  0  0  0  0  0  0  0  0
   -1.6414   -1.0513   -1.6524 H   0  0  0  0  0  0  0  0  0  0  0  0
   -0.7212   -2.3845   -1.6003 H   0  0  0  0  0  0  0  0  0  0  0  0
   -2.3565   -1.3065    0.5930 H   0  0  0  0  0  0  0  0  0  0  0  0
   -0.1306   -1.0201    1.7471 H   0  0  0  0  0  0  0  0  0  0  0  0
    0.6979   -1.6199    0.3326 H   0  0  0  0  0  0  0  0  0  0  0  0
    1.4404   -0.0610   -1.2988 H   0  0  0  0  0  0  0  0  0  0  0  0
   -0.0163    3.9959   -1.2421 H   0  0  0  0  0  0  0  0  0  0  0  0
   -1.6041    3.3983    0.5540 H   0  0  0  0  0  0  0  0  0  0  0  0
   -1.6910    1.0963    1.4327 H   0  0  0  0  0  0  0  0  0  0  0  0
   -2.3968   -5.0365    0.6301 H   0  0  0  0  0  0  0  0  0  0  0  0
   -2.7452   -3.8439   -0.5914 H   0  0  0  0  0  0  0  0  0  0  0  0
  1  2  1  0
  2  3  1  0
  3  4  1  0
  4  5  2  0
  5  6  1  0
  6  7  2  0
  7  8  1  0
  8  9  2  0
  6 10  1  0
 10 11  1  0
 10 12  1  0
 10 13  1  0
  2 14  1  0
 14 15  1  0
 14 16  2  0
  9  4  1  0
  1 17  1  0
  1 18  1  0
  2 19  1  1
  3 20  1  0
  3 21  1  0
  5 22  1  0
  7 23  1  0
  8 24  1  0
  9 25  1  0
 15 26  1  0
 15 27  1  0
M  END
