
     RDKit          3D

 29 28  0  0  0  0  0  0  0  0999 V2000
   -0.1029    3.3064    3.0315 C   0  0  0  0  0  0  0  0  0  0  0  0
    0.0970    1.8024    2.9098 C   0  0  0  0  0  0  0  0  0  0  0  0
   -1.1813    1.0263    2.5921 C   0  0  0  0  0  0  0  0  0  0  0  0
   -2.0358    1.4859    1.0459 S   0  0  0  0  0  0  0  0  0  0  0  0
   -0.7446    1.1671   -0.2208 C   0  0  0  0  0  0  0  0  0  0  0  0
   -0.4488   -0.3287   -0.5064 C   0  0  2  0  0  0  0  0  0  0  0  0
    0.3759   -0.8892    0.5787 N   0  0  0  0  0  0  0  0  0  0  0  0
    0.2613   -0.5431   -1.8815 C   0  0  0  0  0  0  0  0  0  0  0  0
    0.6071   -2.0199   -2.1333 C   0  0  0  0  0  0  0  0  0  0  0  0
   -0.5883   -0.0493   -3.0615 C   0  0  0  0  0  0  0  0  0  0  0  0
    0.8242    3.7807    3.3695 H   0  0  0  0  0  0  0  0  0  0  0  0
   -0.8862    3.5411    3.7592 H   0  0  0  0  0  0  0  0  0  0  0  0
   -0.3729    3.7580    2.0724 H   0  0  0  0  0  0  0  0  0  0  0  0
    0.4865    1.4322    3.8664 H   0  0  0  0  0  0  0  0  0  0  0  0
    0.8759    1.5957    2.1688 H   0  0  0  0  0  0  0  0  0  0  0  0
   -1.9024    1.1987    3.3997 H   0  0  0  0  0  0  0  0  0  0  0  0
   -0.9892   -0.0496    2.5962 H   0  0  0  0  0  0  0  0  0  0  0  0
   -1.1501    1.6445   -1.1154 H   0  0  0  0  0  0  0  0  0  0  0  0
    0.1690    1.7193    0.0220 H   0  0  0  0  0  0  0  0  0  0  0  0
   -1.3992   -0.8777   -0.5254 H   0  0  0  0  0  0  0  0  0  0  0  0
    0.3989   -1.9052    0.5041 H   0  0  0  0  0  0  0  0  0  0  0  0
    1.3397   -0.5719    0.4819 H   0  0  0  0  0  0  0  0  0  0  0  0
    1.2018    0.0242   -1.8881 H   0  0  0  0  0  0  0  0  0  0  0  0
   -0.2844   -2.6521   -2.0613 H   0  0  0  0  0  0  0  0  0  0  0  0
    1.3498   -2.3883   -1.4190 H   0  0  0  0  0  0  0  0  0  0  0  0
    1.0375   -2.1557   -3.1317 H   0  0  0  0  0  0  0  0  0  0  0  0
   -0.1286   -0.3250   -4.0173 H   0  0  0  0  0  0  0  0  0  0  0  0
   -0.6817    1.0399   -3.0673 H   0  0  0  0  0  0  0  0  0  0  0  0
   -1.5935   -0.4831   -3.0341 H   0  0  0  0  0  0  0  0  0  0  0  0
  1  2  1  0
  2  3  1  0
  3  4  1  0
  4  5  1  0
  5  6  1  0
  6  7  1  0
  6  8  1  0
  8  9  1  0
  8 10  1  0
  1 11  1  0
  1 12  1  0
  1 13  1  0
  2 14  1  0
  2 15  1  0
  3 16  1  0
  3 17  1  0
  5 18  1  0
  5 19  1  0
  6 20  1  6
  7 21  1  0
  7 22  1  0
  8 23  1  0
  9 24  1  0
  9 25  1  0
  9 26  1  0
 10 27  1  0
 10 28  1  0
 10 29  1  0
M  END
