
     RDKit          3D

 29 28  0  0  0  0  0  0  0  0999 V2000
    0.7211   -1.6818    1.4995 C   0  0  0  0  0  0  0  0  0  0  0  0
   -0.4798   -2.1161    0.6630 C   0  0  0  0  0  0  0  0  0  0  0  0
   -1.7789   -1.8882    1.4371 C   0  0  0  0  0  0  0  0  0  0  0  0
   -0.5239   -1.4940   -0.7516 C   0  0  0  0  0  0  0  0  0  0  0  0
   -0.6638    0.0421   -0.8521 C   0  0  2  0  0  0  0  0  0  0  0  0
   -1.0397    0.3728   -2.2230 N   0  0  0  0  0  0  0  0  0  0  0  0
    0.6132    0.7732   -0.5330 C   0  0  0  0  0  0  0  0  0  0  0  0
    0.7826    2.0086   -0.0310 C   0  0  0  0  0  0  0  0  0  0  0  0
   -0.5128    3.1150    0.2933 S   0  0  0  0  0  6  0  0  0  0  0  0
   -1.1354    2.5579    1.8589 C   0  0  0  0  0  0  0  0  0  0  0  0
   -1.5626    2.9591   -0.6953 O   0  0  0  0  0  0  0  0  0  0  0  0
    0.0782    4.4209    0.5209 O   0  0  0  0  0  0  0  0  0  0  0  0
    1.6539   -1.7982    0.9384 H   0  0  0  0  0  0  0  0  0  0  0  0
    0.7994   -2.3002    2.4007 H   0  0  0  0  0  0  0  0  0  0  0  0
    0.6359   -0.6423    1.8292 H   0  0  0  0  0  0  0  0  0  0  0  0
   -0.3855   -3.2008    0.5143 H   0  0  0  0  0  0  0  0  0  0  0  0
   -1.9126   -0.8377    1.7095 H   0  0  0  0  0  0  0  0  0  0  0  0
   -2.6460   -2.2021    0.8468 H   0  0  0  0  0  0  0  0  0  0  0  0
   -1.7797   -2.4716    2.3643 H   0  0  0  0  0  0  0  0  0  0  0  0
    0.3688   -1.8217   -1.3032 H   0  0  0  0  0  0  0  0  0  0  0  0
   -1.3749   -1.9565   -1.2732 H   0  0  0  0  0  0  0  0  0  0  0  0
   -1.4783    0.3573   -0.1966 H   0  0  0  0  0  0  0  0  0  0  0  0
   -1.3416    1.3533   -2.2450 H   0  0  0  0  0  0  0  0  0  0  0  0
   -0.2397    0.3005   -2.8470 H   0  0  0  0  0  0  0  0  0  0  0  0
    1.5259    0.2197   -0.7557 H   0  0  0  0  0  0  0  0  0  0  0  0
    1.7786    2.4001    0.1355 H   0  0  0  0  0  0  0  0  0  0  0  0
   -0.3249    2.5733    2.5903 H   0  0  0  0  0  0  0  0  0  0  0  0
   -1.5451    1.5537    1.7583 H   0  0  0  0  0  0  0  0  0  0  0  0
   -1.9252    3.2453    2.1706 H   0  0  0  0  0  0  0  0  0  0  0  0
  1  2  1  0
  2  3  1  0
  2  4  1  0
  4  5  1  0
  5  6  1  0
  5  7  1  0
  7  8  2  3
  8  9  1  0
  9 10  1  0
  9 11  2  0
  9 12  2  0
  1 13  1  0
  1 14  1  0
  1 15  1  0
  2 16  1  0
  3 17  1  0
  3 18  1  0
  3 19  1  0
  4 20  1  0
  4 21  1  0
  5 22  1  1
  6 23  1  0
  6 24  1  0
  7 25  1  0
  8 26  1  0
 10 27  1  0
 10 28  1  0
 10 29  1  0
M  END
