
     RDKit          3D

 35 34  0  0  0  0  0  0  0  0999 V2000
    2.7535    2.4915   -1.4728 C   0  0  0  0  0  0  0  0  0  0  0  0
    1.7497    2.6825   -0.3468 C   0  0  0  0  0  0  0  0  0  0  0  0
    0.3129    2.3321   -0.7407 C   0  0  0  0  0  0  0  0  0  0  0  0
    0.0808    0.8937   -1.2177 C   0  0  0  0  0  0  0  0  0  0  0  0
    0.4217   -0.1597   -0.1597 C   0  0  0  0  0  0  0  0  0  0  0  0
    0.1773   -1.5975   -0.6293 C   0  0  0  0  0  0  0  0  0  0  0  0
   -1.2820   -1.9924   -0.8887 C   0  0  0  0  0  0  0  0  0  0  0  0
   -2.0116   -2.6073    0.3161 C   0  0  0  0  0  0  0  0  0  0  0  0
   -2.4109   -1.6349    1.4382 C   0  0  2  0  0  0  0  0  0  0  0  0
   -3.0766   -2.3921    2.5004 N   0  0  0  0  0  0  0  0  0  0  0  0
   -3.3739   -0.5826    0.9697 C   0  0  0  0  0  0  0  0  0  0  0  0
   -3.1744    0.7388    1.0681 C   0  0  0  0  0  0  0  0  0  0  0  0
    3.7386    2.8553   -1.1633 H   0  0  0  0  0  0  0  0  0  0  0  0
    2.4525    3.0474   -2.3663 H   0  0  0  0  0  0  0  0  0  0  0  0
    2.8600    1.4360   -1.7400 H   0  0  0  0  0  0  0  0  0  0  0  0
    2.0609    2.0971    0.5252 H   0  0  0  0  0  0  0  0  0  0  0  0
    1.7730    3.7337   -0.0346 H   0  0  0  0  0  0  0  0  0  0  0  0
   -0.0102    3.0145   -1.5370 H   0  0  0  0  0  0  0  0  0  0  0  0
   -0.3403    2.5317    0.1178 H   0  0  0  0  0  0  0  0  0  0  0  0
    0.6568    0.7039   -2.1305 H   0  0  0  0  0  0  0  0  0  0  0  0
   -0.9747    0.8103   -1.4981 H   0  0  0  0  0  0  0  0  0  0  0  0
    1.4856   -0.0801    0.0928 H   0  0  0  0  0  0  0  0  0  0  0  0
   -0.1272    0.0466    0.7615 H   0  0  0  0  0  0  0  0  0  0  0  0
    0.7392   -1.7421   -1.5615 H   0  0  0  0  0  0  0  0  0  0  0  0
    0.6202   -2.2885    0.0983 H   0  0  0  0  0  0  0  0  0  0  0  0
   -1.2636   -2.7713   -1.6634 H   0  0  0  0  0  0  0  0  0  0  0  0
   -1.8601   -1.1696   -1.3175 H   0  0  0  0  0  0  0  0  0  0  0  0
   -2.9162   -3.1019   -0.0664 H   0  0  0  0  0  0  0  0  0  0  0  0
   -1.3867   -3.4099    0.7309 H   0  0  0  0  0  0  0  0  0  0  0  0
   -1.5136   -1.1823    1.8702 H   0  0  0  0  0  0  0  0  0  0  0  0
   -3.2815   -1.7572    3.2710 H   0  0  0  0  0  0  0  0  0  0  0  0
   -2.4314   -3.0869    2.8716 H   0  0  0  0  0  0  0  0  0  0  0  0
   -4.3024   -0.9387    0.5260 H   0  0  0  0  0  0  0  0  0  0  0  0
   -3.9225    1.4384    0.7084 H   0  0  0  0  0  0  0  0  0  0  0  0
   -2.2730    1.1507    1.5094 H   0  0  0  0  0  0  0  0  0  0  0  0
  1  2  1  0
  2  3  1  0
  3  4  1  0
  4  5  1  0
  5  6  1  0
  6  7  1  0
  7  8  1  0
  8  9  1  0
  9 10  1  0
  9 11  1  0
 11 12  2  3
  1 13  1  0
  1 14  1  0
  1 15  1  0
  2 16  1  0
  2 17  1  0
  3 18  1  0
  3 19  1  0
  4 20  1  0
  4 21  1  0
  5 22  1  0
  5 23  1  0
  6 24  1  0
  6 25  1  0
  7 26  1  0
  7 27  1  0
  8 28  1  0
  8 29  1  0
  9 30  1  1
 10 31  1  0
 10 32  1  0
 11 33  1  0
 12 34  1  0
 12 35  1  0
M  END
