
     RDKit          3D

 38 37  0  0  0  0  0  0  0  0999 V2000
    3.6749    3.0394   -0.6421 C   0  0  0  0  0  0  0  0  0  0  0  0
    3.2275    3.6024    0.6981 C   0  0  0  0  0  0  0  0  0  0  0  0
    1.8733    4.3079    0.6385 C   0  0  0  0  0  0  0  0  0  0  0  0
    0.6675    3.4356    0.2704 C   0  0  0  0  0  0  0  0  0  0  0  0
    0.3085    2.3692    1.3130 C   0  0  0  0  0  0  0  0  0  0  0  0
    0.8675    0.9837    0.9765 C   0  0  0  0  0  0  0  0  0  0  0  0
    0.5749   -0.0662    2.0536 C   0  0  0  0  0  0  0  0  0  0  0  0
   -0.9048   -0.3336    2.3457 C   0  0  0  0  0  0  0  0  0  0  0  0
   -1.7954   -0.7422    1.1539 C   0  0  2  0  0  0  0  0  0  0  0  0
   -3.1864   -0.7564    1.6478 N   0  0  0  0  0  0  0  0  0  0  0  0
   -1.4735   -2.1359    0.5618 C   0  0  0  0  0  0  0  0  0  0  0  0
   -0.3581   -2.1473   -0.4494 C   0  0  0  0  0  0  0  0  0  0  0  0
   -0.5458   -2.2636   -1.7706 C   0  0  0  0  0  0  0  0  0  0  0  0
    3.0073    2.2480   -0.9933 H   0  0  0  0  0  0  0  0  0  0  0  0
    4.6789    2.6123   -0.5532 H   0  0  0  0  0  0  0  0  0  0  0  0
    3.7083    3.8242   -1.4045 H   0  0  0  0  0  0  0  0  0  0  0  0
    3.2155    2.8104    1.4535 H   0  0  0  0  0  0  0  0  0  0  0  0
    3.9780    4.3298    1.0314 H   0  0  0  0  0  0  0  0  0  0  0  0
    1.6842    4.7797    1.6111 H   0  0  0  0  0  0  0  0  0  0  0  0
    1.9377    5.1279   -0.0882 H   0  0  0  0  0  0  0  0  0  0  0  0
    0.7946    2.9895   -0.7221 H   0  0  0  0  0  0  0  0  0  0  0  0
   -0.1925    4.1133    0.1851 H   0  0  0  0  0  0  0  0  0  0  0  0
   -0.7853    2.2995    1.3483 H   0  0  0  0  0  0  0  0  0  0  0  0
    0.6350    2.6816    2.3117 H   0  0  0  0  0  0  0  0  0  0  0  0
    0.4732    0.6550    0.0092 H   0  0  0  0  0  0  0  0  0  0  0  0
    1.9537    1.0388    0.8581 H   0  0  0  0  0  0  0  0  0  0  0  0
    1.0725   -1.0039    1.7878 H   0  0  0  0  0  0  0  0  0  0  0  0
    1.0502    0.2568    2.9893 H   0  0  0  0  0  0  0  0  0  0  0  0
   -0.9588   -1.1122    3.1192 H   0  0  0  0  0  0  0  0  0  0  0  0
   -1.3202    0.5692    2.8138 H   0  0  0  0  0  0  0  0  0  0  0  0
   -1.7426    0.0187    0.3671 H   0  0  0  0  0  0  0  0  0  0  0  0
   -3.8179   -0.9474    0.8702 H   0  0  0  0  0  0  0  0  0  0  0  0
   -3.4342    0.1722    1.9882 H   0  0  0  0  0  0  0  0  0  0  0  0
   -2.3721   -2.5395    0.0740 H   0  0  0  0  0  0  0  0  0  0  0  0
   -1.2319   -2.8443    1.3643 H   0  0  0  0  0  0  0  0  0  0  0  0
    0.6604   -2.0914   -0.0761 H   0  0  0  0  0  0  0  0  0  0  0  0
   -1.5387   -2.3423   -2.2027 H   0  0  0  0  0  0  0  0  0  0  0  0
    0.2996   -2.2845   -2.4518 H   0  0  0  0  0  0  0  0  0  0  0  0
  1  2  1  0
  2  3  1  0
  3  4  1  0
  4  5  1  0
  5  6  1  0
  6  7  1  0
  7  8  1  0
  8  9  1  0
  9 10  1  0
  9 11  1  0
 11 12  1  0
 12 13  2  3
  1 14  1  0
  1 15  1  0
  1 16  1  0
  2 17  1  0
  2 18  1  0
  3 19  1  0
  3 20  1  0
  4 21  1  0
  4 22  1  0
  5 23  1  0
  5 24  1  0
  6 25  1  0
  6 26  1  0
  7 27  1  0
  7 28  1  0
  8 29  1  0
  8 30  1  0
  9 31  1  6
 10 32  1  0
 10 33  1  0
 11 34  1  0
 11 35  1  0
 12 36  1  0
 13 37  1  0
 13 38  1  0
M  END
