
     RDKit          3D

 28 28  0  0  0  0  0  0  0  0999 V2000
   -3.1220   -0.0100   -0.9883 C   0  0  0  0  0  0  0  0  0  0  0  0
   -2.9644   -1.5256   -1.1667 C   0  0  0  0  0  0  0  0  0  0  0  0
   -3.0164   -2.2140    0.2035 C   0  0  0  0  0  0  0  0  0  0  0  0
   -1.7033   -1.9473   -1.9623 C   0  0  1  0  0  0  0  0  0  0  0  0
   -1.7470   -1.4352   -3.3324 N   0  0  0  0  0  0  0  0  0  0  0  0
   -0.4499   -1.5076   -1.3280 C   0  0  0  0  0  0  0  0  0  0  0  0
    0.5722   -1.1477   -0.8089 C   0  0  0  0  0  0  0  0  0  0  0  0
    1.7837   -0.7128   -0.1858 C   0  0  0  0  0  0  0  0  0  0  0  0
    2.9849   -1.3735   -0.4526 C   0  0  0  0  0  0  0  0  0  0  0  0
    4.1669   -0.9473    0.1566 C   0  0  0  0  0  0  0  0  0  0  0  0
    4.1485    0.1385    1.0321 C   0  0  0  0  0  0  0  0  0  0  0  0
    2.9496    0.7992    1.2998 C   0  0  0  0  0  0  0  0  0  0  0  0
    1.7669    0.3741    0.6913 C   0  0  0  0  0  0  0  0  0  0  0  0
   -3.1796    0.5041   -1.9524 H   0  0  0  0  0  0  0  0  0  0  0  0
   -4.0470    0.2164   -0.4462 H   0  0  0  0  0  0  0  0  0  0  0  0
   -2.2923    0.4208   -0.4186 H   0  0  0  0  0  0  0  0  0  0  0  0
   -3.8414   -1.8769   -1.7287 H   0  0  0  0  0  0  0  0  0  0  0  0
   -2.9305   -3.3005    0.0972 H   0  0  0  0  0  0  0  0  0  0  0  0
   -2.2125   -1.8699    0.8626 H   0  0  0  0  0  0  0  0  0  0  0  0
   -3.9685   -2.0046    0.7032 H   0  0  0  0  0  0  0  0  0  0  0  0
   -1.6942   -3.0424   -2.0281 H   0  0  0  0  0  0  0  0  0  0  0  0
   -1.6538   -0.4207   -3.3099 H   0  0  0  0  0  0  0  0  0  0  0  0
   -0.9225   -1.7717   -3.8288 H   0  0  0  0  0  0  0  0  0  0  0  0
    3.0074   -2.2209   -1.1333 H   0  0  0  0  0  0  0  0  0  0  0  0
    5.1012   -1.4623   -0.0515 H   0  0  0  0  0  0  0  0  0  0  0  0
    5.0690    0.4697    1.5062 H   0  0  0  0  0  0  0  0  0  0  0  0
    2.9353    1.6450    1.9823 H   0  0  0  0  0  0  0  0  0  0  0  0
    0.8363    0.8938    0.9053 H   0  0  0  0  0  0  0  0  0  0  0  0
  1  2  1  0
  2  3  1  0
  2  4  1  0
  4  5  1  0
  4  6  1  0
  6  7  3  0
  7  8  1  0
  8  9  2  0
  9 10  1  0
 10 11  2  0
 11 12  1  0
 12 13  2  0
 13  8  1  0
  1 14  1  0
  1 15  1  0
  1 16  1  0
  2 17  1  0
  3 18  1  0
  3 19  1  0
  3 20  1  0
  4 21  1  6
  5 22  1  0
  5 23  1  0
  9 24  1  0
 10 25  1  0
 11 26  1  0
 12 27  1  0
 13 28  1  0
M  END
