
     RDKit          3D

 22 22  0  0  0  0  0  0  0  0999 V2000
   -3.7213    0.2090   -0.2772 C   0  0  0  0  0  0  0  0  0  0  0  0
   -2.4472    0.7562   -0.9116 C   0  0  2  0  0  0  0  0  0  0  0  0
   -2.4079    0.3920   -2.3247 N   0  0  0  0  0  0  0  0  0  0  0  0
   -1.2560    0.2264   -0.2351 C   0  0  0  0  0  0  0  0  0  0  0  0
   -0.2760   -0.2132    0.3038 C   0  0  0  0  0  0  0  0  0  0  0  0
    0.8951   -0.7431    0.9383 C   0  0  0  0  0  0  0  0  0  0  0  0
    1.1092   -0.4559    2.2922 C   0  0  0  0  0  0  0  0  0  0  0  0
    2.2370   -0.9519    2.9504 C   0  0  0  0  0  0  0  0  0  0  0  0
    3.1582   -1.7379    2.2604 C   0  0  0  0  0  0  0  0  0  0  0  0
    2.9529   -2.0292    0.9110 C   0  0  0  0  0  0  0  0  0  0  0  0
    1.8246   -1.5341    0.2490 C   0  0  0  0  0  0  0  0  0  0  0  0
    1.6297   -1.9322   -1.4233 Cl  0  0  0  0  0  0  0  0  0  0  0  0
   -3.7802    0.4896    0.7808 H   0  0  0  0  0  0  0  0  0  0  0  0
   -4.6116    0.6067   -0.7772 H   0  0  0  0  0  0  0  0  0  0  0  0
   -3.7647   -0.8857   -0.3282 H   0  0  0  0  0  0  0  0  0  0  0  0
   -2.4563    1.8491   -0.8345 H   0  0  0  0  0  0  0  0  0  0  0  0
   -2.3675   -0.6241   -2.4018 H   0  0  0  0  0  0  0  0  0  0  0  0
   -1.5319    0.7297   -2.7228 H   0  0  0  0  0  0  0  0  0  0  0  0
    0.3975    0.1565    2.8421 H   0  0  0  0  0  0  0  0  0  0  0  0
    2.3956   -0.7240    4.0019 H   0  0  0  0  0  0  0  0  0  0  0  0
    4.0363   -2.1241    2.7725 H   0  0  0  0  0  0  0  0  0  0  0  0
    3.6759   -2.6430    0.3796 H   0  0  0  0  0  0  0  0  0  0  0  0
  1  2  1  0
  2  3  1  0
  2  4  1  0
  4  5  3  0
  5  6  1  0
  6  7  2  0
  7  8  1  0
  8  9  2  0
  9 10  1  0
 10 11  2  0
 11 12  1  0
 11  6  1  0
  1 13  1  0
  1 14  1  0
  1 15  1  0
  2 16  1  6
  3 17  1  0
  3 18  1  0
  7 19  1  0
  8 20  1  0
  9 21  1  0
 10 22  1  0
M  END
