
     RDKit          3D

 36 35  0  0  0  0  0  0  0  0999 V2000
   -0.2044   -2.3092    3.4843 C   0  0  0  0  0  0  0  0  0  0  0  0
   -0.7756   -2.3832    2.0767 C   0  0  0  0  0  0  0  0  0  0  0  0
   -0.5411   -1.1121    1.2558 C   0  0  0  0  0  0  0  0  0  0  0  0
   -1.2473    0.1142    1.8314 C   0  0  0  0  0  0  0  0  0  0  0  0
   -1.3111    1.3194    0.8856 C   0  0  0  0  0  0  0  0  0  0  0  0
    0.0410    1.9363    0.5155 C   0  0  0  0  0  0  0  0  0  0  0  0
    0.7598    1.3641   -0.7153 C   0  0  0  0  0  0  0  0  0  0  0  0
    0.0761    1.6537   -2.0549 C   0  0  0  0  0  0  0  0  0  0  0  0
   -0.9193    0.6349   -2.4166 C   0  0  0  0  0  0  0  0  0  0  0  0
   -1.7334   -0.1985   -2.7121 C   0  0  0  0  0  0  0  0  0  0  0  0
   -2.7342   -1.2211   -3.0504 C   0  0  2  0  0  0  0  0  0  0  0  0
   -3.6578   -0.7328   -4.1608 C   0  0  0  0  0  0  0  0  0  0  0  0
   -3.5208   -1.5396   -1.8618 N   0  0  0  0  0  0  0  0  0  0  0  0
    0.8634   -2.0693    3.4633 H   0  0  0  0  0  0  0  0  0  0  0  0
   -0.3251   -3.2729    3.9897 H   0  0  0  0  0  0  0  0  0  0  0  0
   -0.7176   -1.5533    4.0859 H   0  0  0  0  0  0  0  0  0  0  0  0
   -0.3081   -3.2259    1.5535 H   0  0  0  0  0  0  0  0  0  0  0  0
   -1.8487   -2.6001    2.1295 H   0  0  0  0  0  0  0  0  0  0  0  0
    0.5366   -0.9258    1.1969 H   0  0  0  0  0  0  0  0  0  0  0  0
   -0.8978   -1.2948    0.2359 H   0  0  0  0  0  0  0  0  0  0  0  0
   -2.2775   -0.1564    2.0950 H   0  0  0  0  0  0  0  0  0  0  0  0
   -0.7573    0.4197    2.7636 H   0  0  0  0  0  0  0  0  0  0  0  0
   -1.8871    2.0936    1.4103 H   0  0  0  0  0  0  0  0  0  0  0  0
   -1.8997    1.0705    0.0000 H   0  0  0  0  0  0  0  0  0  0  0  0
    0.7156    1.8704    1.3782 H   0  0  0  0  0  0  0  0  0  0  0  0
   -0.1134    3.0090    0.3397 H   0  0  0  0  0  0  0  0  0  0  0  0
    0.9522    0.2937   -0.6021 H   0  0  0  0  0  0  0  0  0  0  0  0
    1.7466    1.8456   -0.7461 H   0  0  0  0  0  0  0  0  0  0  0  0
   -0.3805    2.6496   -2.0486 H   0  0  0  0  0  0  0  0  0  0  0  0
    0.8438    1.6669   -2.8386 H   0  0  0  0  0  0  0  0  0  0  0  0
   -2.2278   -2.1322   -3.3872 H   0  0  0  0  0  0  0  0  0  0  0  0
   -4.1913    0.1821   -3.8755 H   0  0  0  0  0  0  0  0  0  0  0  0
   -3.0875   -0.5086   -5.0696 H   0  0  0  0  0  0  0  0  0  0  0  0
   -4.4037   -1.4941   -4.4152 H   0  0  0  0  0  0  0  0  0  0  0  0
   -2.8825   -1.8291   -1.1221 H   0  0  0  0  0  0  0  0  0  0  0  0
   -3.9624   -0.6848   -1.5252 H   0  0  0  0  0  0  0  0  0  0  0  0
  1  2  1  0
  2  3  1  0
  3  4  1  0
  4  5  1  0
  5  6  1  0
  6  7  1  0
  7  8  1  0
  8  9  1  0
  9 10  3  0
 10 11  1  0
 11 12  1  0
 11 13  1  0
  1 14  1  0
  1 15  1  0
  1 16  1  0
  2 17  1  0
  2 18  1  0
  3 19  1  0
  3 20  1  0
  4 21  1  0
  4 22  1  0
  5 23  1  0
  5 24  1  0
  6 25  1  0
  6 26  1  0
  7 27  1  0
  7 28  1  0
  8 29  1  0
  8 30  1  0
 11 31  1  6
 12 32  1  0
 12 33  1  0
 12 34  1  0
 13 35  1  0
 13 36  1  0
M  END
