
     RDKit          3D

 36 36  0  0  0  0  0  0  0  0999 V2000
   -0.2676   -0.3441    2.6956 C   0  0  0  0  0  0  0  0  0  0  0  0
    0.4362   -1.6853    2.4986 C   0  0  0  0  0  0  0  0  0  0  0  0
   -0.5655   -2.7769    2.1276 C   0  0  0  0  0  0  0  0  0  0  0  0
    1.6553   -1.6220    1.5508 C   0  0  0  0  0  0  0  0  0  0  0  0
    1.4246   -1.7120    0.0231 C   0  0  2  0  0  0  0  0  0  0  0  0
    2.7405   -1.9411   -0.6176 N   0  0  0  0  0  0  0  0  0  0  0  0
    0.6152   -0.5288   -0.6279 C   0  0  2  0  0  0  0  0  0  0  0  0
    0.3693   -0.8041   -2.1134 C   0  0  0  0  0  0  0  0  0  0  0  0
    0.7834   -0.0863   -3.1677 C   0  0  0  0  0  0  0  0  0  0  0  0
    1.0893    0.8968   -0.3400 C   0  0  0  0  0  0  0  0  0  0  0  0
    0.1289    1.9180   -0.2023 C   0  0  0  0  0  0  0  0  0  0  0  0
    0.5088    3.2395    0.0450 C   0  0  0  0  0  0  0  0  0  0  0  0
    1.8586    3.5597    0.1465 C   0  0  0  0  0  0  0  0  0  0  0  0
    2.3786    5.3458    0.4804 Br  0  0  0  0  0  0  0  0  0  0  0  0
    2.8278    2.5728   -0.0037 C   0  0  0  0  0  0  0  0  0  0  0  0
    2.4437    1.2513   -0.2516 C   0  0  0  0  0  0  0  0  0  0  0  0
   -0.9314   -0.3928    3.5664 H   0  0  0  0  0  0  0  0  0  0  0  0
    0.4535    0.4589    2.8782 H   0  0  0  0  0  0  0  0  0  0  0  0
   -0.8892   -0.0699    1.8415 H   0  0  0  0  0  0  0  0  0  0  0  0
    0.8438   -1.9522    3.4842 H   0  0  0  0  0  0  0  0  0  0  0  0
   -1.3193   -2.8893    2.9145 H   0  0  0  0  0  0  0  0  0  0  0  0
   -1.0934   -2.5462    1.1972 H   0  0  0  0  0  0  0  0  0  0  0  0
   -0.0631   -3.7426    2.0088 H   0  0  0  0  0  0  0  0  0  0  0  0
    2.2891   -2.4774    1.8311 H   0  0  0  0  0  0  0  0  0  0  0  0
    2.2551   -0.7371    1.7964 H   0  0  0  0  0  0  0  0  0  0  0  0
    0.8544   -2.6298   -0.1728 H   0  0  0  0  0  0  0  0  0  0  0  0
    3.1112   -2.8431   -0.3223 H   0  0  0  0  0  0  0  0  0  0  0  0
    2.6164   -1.9958   -1.6291 H   0  0  0  0  0  0  0  0  0  0  0  0
   -0.3873   -0.6004   -0.1857 H   0  0  0  0  0  0  0  0  0  0  0  0
   -0.2280   -1.6927   -2.3158 H   0  0  0  0  0  0  0  0  0  0  0  0
    0.5306   -0.3894   -4.1791 H   0  0  0  0  0  0  0  0  0  0  0  0
    1.3796    0.8144   -3.0585 H   0  0  0  0  0  0  0  0  0  0  0  0
   -0.9308    1.6861   -0.2910 H   0  0  0  0  0  0  0  0  0  0  0  0
   -0.2538    4.0058    0.1516 H   0  0  0  0  0  0  0  0  0  0  0  0
    3.8846    2.8159    0.0655 H   0  0  0  0  0  0  0  0  0  0  0  0
    3.2240    0.5052   -0.3780 H   0  0  0  0  0  0  0  0  0  0  0  0
  1  2  1  0
  2  3  1  0
  2  4  1  0
  4  5  1  0
  5  6  1  0
  5  7  1  0
  7  8  1  0
  8  9  2  3
  7 10  1  0
 10 11  2  0
 11 12  1  0
 12 13  2  0
 13 14  1  0
 13 15  1  0
 15 16  2  0
 16 10  1  0
  1 17  1  0
  1 18  1  0
  1 19  1  0
  2 20  1  0
  3 21  1  0
  3 22  1  0
  3 23  1  0
  4 24  1  0
  4 25  1  0
  5 26  1  1
  6 27  1  0
  6 28  1  0
  7 29  1  1
  8 30  1  0
  9 31  1  0
  9 32  1  0
 11 33  1  0
 12 34  1  0
 15 35  1  0
 16 36  1  0
M  END
