
     RDKit          3D

 38 39  0  0  0  0  0  0  0  0999 V2000
    3.4951   -0.5726   -1.9377 N   0  0  0  0  0  0  0  0  0  0  0  0
    2.6933   -0.4876   -0.7047 C   0  0  1  0  0  0  0  0  0  0  0  0
    1.5400    0.4831   -0.8641 C   0  0  0  0  0  0  0  0  0  0  0  0
    1.0481    0.9739   -2.0155 C   0  0  0  0  0  0  0  0  0  0  0  0
   -0.0874    1.9028   -2.1005 C   0  0  0  0  0  0  0  0  0  0  0  0
   -0.9720    1.7901   -3.1811 C   0  0  0  0  0  0  0  0  0  0  0  0
   -2.0508    2.6681   -3.3138 C   0  0  0  0  0  0  0  0  0  0  0  0
   -2.2496    3.6757   -2.3726 C   0  0  0  0  0  0  0  0  0  0  0  0
   -1.3677    3.8089   -1.3023 C   0  0  0  0  0  0  0  0  0  0  0  0
   -0.2890    2.9303   -1.1696 C   0  0  0  0  0  0  0  0  0  0  0  0
    2.2586   -1.9175   -0.1977 C   0  0  2  0  0  0  0  0  0  0  0  0
    1.3941   -2.6848   -1.1871 C   0  0  0  0  0  0  0  0  0  0  0  0
    1.5905   -3.9639   -1.5376 C   0  0  0  0  0  0  0  0  0  0  0  0
    1.6569   -1.8694    1.2098 C   0  0  0  0  0  0  0  0  0  0  0  0
    0.2805   -1.6931    1.4320 C   0  0  0  0  0  0  0  0  0  0  0  0
   -0.2332   -1.6301    2.7300 C   0  0  0  0  0  0  0  0  0  0  0  0
    0.6258   -1.7401    3.8196 C   0  0  0  0  0  0  0  0  0  0  0  0
   -0.0681   -1.6536    5.5756 Br  0  0  0  0  0  0  0  0  0  0  0  0
    1.9936   -1.9108    3.6241 C   0  0  0  0  0  0  0  0  0  0  0  0
    2.5060   -1.9729    2.3257 C   0  0  0  0  0  0  0  0  0  0  0  0
    4.2597   -1.2301   -1.8005 H   0  0  0  0  0  0  0  0  0  0  0  0
    3.9213    0.3365   -2.1102 H   0  0  0  0  0  0  0  0  0  0  0  0
    3.3550   -0.0556    0.0589 H   0  0  0  0  0  0  0  0  0  0  0  0
    1.0811    0.7861    0.0753 H   0  0  0  0  0  0  0  0  0  0  0  0
    1.4676    0.6542   -2.9672 H   0  0  0  0  0  0  0  0  0  0  0  0
   -0.8325    1.0099   -3.9261 H   0  0  0  0  0  0  0  0  0  0  0  0
   -2.7336    2.5647   -4.1529 H   0  0  0  0  0  0  0  0  0  0  0  0
   -3.0878    4.3597   -2.4760 H   0  0  0  0  0  0  0  0  0  0  0  0
   -1.5147    4.6001   -0.5719 H   0  0  0  0  0  0  0  0  0  0  0  0
    0.3966    3.0655   -0.3371 H   0  0  0  0  0  0  0  0  0  0  0  0
    3.1911   -2.4966   -0.1006 H   0  0  0  0  0  0  0  0  0  0  0  0
    0.5786   -2.1372   -1.6552 H   0  0  0  0  0  0  0  0  0  0  0  0
    0.9413   -4.4442   -2.2631 H   0  0  0  0  0  0  0  0  0  0  0  0
    2.3928   -4.5571   -1.1111 H   0  0  0  0  0  0  0  0  0  0  0  0
   -0.4085   -1.5983    0.5948 H   0  0  0  0  0  0  0  0  0  0  0  0
   -1.3016   -1.4949    2.8758 H   0  0  0  0  0  0  0  0  0  0  0  0
    2.6681   -1.9971    4.4718 H   0  0  0  0  0  0  0  0  0  0  0  0
    3.5776   -2.1064    2.1916 H   0  0  0  0  0  0  0  0  0  0  0  0
  1  2  1  0
  2  3  1  0
  3  4  2  0
  4  5  1  0
  5  6  2  0
  6  7  1  0
  7  8  2  0
  8  9  1  0
  9 10  2  0
  2 11  1  0
 11 12  1  0
 12 13  2  3
 11 14  1  0
 14 15  2  0
 15 16  1  0
 16 17  2  0
 17 18  1  0
 17 19  1  0
 19 20  2  0
 10  5  1  0
 20 14  1  0
  1 21  1  0
  1 22  1  0
  2 23  1  1
  3 24  1  0
  4 25  1  0
  6 26  1  0
  7 27  1  0
  8 28  1  0
  9 29  1  0
 10 30  1  0
 11 31  1  1
 12 32  1  0
 13 33  1  0
 13 34  1  0
 15 35  1  0
 16 36  1  0
 19 37  1  0
 20 38  1  0
M  END
