
     RDKit          3D

 40 41  0  0  0  0  0  0  0  0999 V2000
   -0.4885    2.4236    0.2008 N   0  0  0  0  0  0  0  0  0  0  0  0
   -0.5011    1.0667   -0.4022 C   0  0  1  0  0  0  0  0  0  0  0  0
   -1.9705    0.5825   -0.3324 C   0  0  0  0  0  0  0  0  0  0  0  0
   -2.1949   -0.9368   -0.3821 C   0  0  0  0  0  0  0  0  0  0  0  0
   -1.4782   -1.7134    0.6970 C   0  0  0  0  0  0  0  0  0  0  0  0
   -0.5465   -2.7038    0.3568 C   0  0  0  0  0  0  0  0  0  0  0  0
    0.1227   -3.4207    1.3502 C   0  0  0  0  0  0  0  0  0  0  0  0
   -0.1375   -3.1611    2.6939 C   0  0  0  0  0  0  0  0  0  0  0  0
   -1.0711   -2.1885    3.0451 C   0  0  0  0  0  0  0  0  0  0  0  0
   -1.7408   -1.4708    2.0526 C   0  0  0  0  0  0  0  0  0  0  0  0
    0.0962    1.1210   -1.8584 C   0  0  2  0  0  0  0  0  0  0  0  0
    0.0859   -0.2066   -2.5906 C   0  0  0  0  0  0  0  0  0  0  0  0
   -0.5280   -0.4217   -3.7629 C   0  0  0  0  0  0  0  0  0  0  0  0
    1.5237    1.6844   -1.8807 C   0  0  0  0  0  0  0  0  0  0  0  0
    1.8159    2.8107   -2.6676 C   0  0  0  0  0  0  0  0  0  0  0  0
    3.1081    3.3399   -2.7041 C   0  0  0  0  0  0  0  0  0  0  0  0
    4.1204    2.7434   -1.9568 C   0  0  0  0  0  0  0  0  0  0  0  0
    5.8695    3.4588   -2.0058 Br  0  0  0  0  0  0  0  0  0  0  0  0
    3.8538    1.6224   -1.1747 C   0  0  0  0  0  0  0  0  0  0  0  0
    2.5613    1.0937   -1.1383 C   0  0  0  0  0  0  0  0  0  0  0  0
   -0.7278    2.3497    1.1894 H   0  0  0  0  0  0  0  0  0  0  0  0
    0.4645    2.7909    0.1761 H   0  0  0  0  0  0  0  0  0  0  0  0
    0.1283    0.4334    0.2325 H   0  0  0  0  0  0  0  0  0  0  0  0
   -2.4279    0.9448    0.5991 H   0  0  0  0  0  0  0  0  0  0  0  0
   -2.5484    1.0496   -1.1410 H   0  0  0  0  0  0  0  0  0  0  0  0
   -3.2699   -1.1326   -0.2707 H   0  0  0  0  0  0  0  0  0  0  0  0
   -1.9397   -1.3336   -1.3679 H   0  0  0  0  0  0  0  0  0  0  0  0
   -0.3371   -2.9285   -0.6864 H   0  0  0  0  0  0  0  0  0  0  0  0
    0.8435   -4.1862    1.0749 H   0  0  0  0  0  0  0  0  0  0  0  0
    0.3813   -3.7216    3.4670 H   0  0  0  0  0  0  0  0  0  0  0  0
   -1.2819   -1.9913    4.0929 H   0  0  0  0  0  0  0  0  0  0  0  0
   -2.4736   -0.7227    2.3463 H   0  0  0  0  0  0  0  0  0  0  0  0
   -0.5405    1.8191   -2.4228 H   0  0  0  0  0  0  0  0  0  0  0  0
    0.6317   -1.0268   -2.1296 H   0  0  0  0  0  0  0  0  0  0  0  0
   -1.0759    0.3643   -4.2736 H   0  0  0  0  0  0  0  0  0  0  0  0
   -0.4863   -1.3953   -4.2415 H   0  0  0  0  0  0  0  0  0  0  0  0
    1.0341    3.2861   -3.2568 H   0  0  0  0  0  0  0  0  0  0  0  0
    3.3117    4.2132   -3.3178 H   0  0  0  0  0  0  0  0  0  0  0  0
    4.6421    1.1512   -0.5938 H   0  0  0  0  0  0  0  0  0  0  0  0
    2.3727    0.2129   -0.5282 H   0  0  0  0  0  0  0  0  0  0  0  0
  1  2  1  0
  2  3  1  0
  3  4  1  0
  4  5  1  0
  5  6  2  0
  6  7  1  0
  7  8  2  0
  8  9  1  0
  9 10  2  0
  2 11  1  0
 11 12  1  0
 12 13  2  3
 11 14  1  0
 14 15  2  0
 15 16  1  0
 16 17  2  0
 17 18  1  0
 17 19  1  0
 19 20  2  0
 10  5  1  0
 20 14  1  0
  1 21  1  0
  1 22  1  0
  2 23  1  1
  3 24  1  0
  3 25  1  0
  4 26  1  0
  4 27  1  0
  6 28  1  0
  7 29  1  0
  8 30  1  0
  9 31  1  0
 10 32  1  0
 11 33  1  6
 12 34  1  0
 13 35  1  0
 13 36  1  0
 15 37  1  0
 16 38  1  0
 19 39  1  0
 20 40  1  0
M  END
