
     RDKit          3D

 33 34  0  0  0  0  0  0  0  0999 V2000
    1.4139   -1.6724   -1.4981 C   0  0  0  0  0  0  0  0  0  0  0  0
    0.3489   -1.5545   -0.3973 C   0  0  1  0  0  0  0  0  0  0  0  0
    0.5723   -2.6838    0.5471 N   0  0  0  0  0  0  0  0  0  0  0  0
    0.2458   -0.1206    0.2983 C   0  0  0  0  0  0  0  0  0  0  0  0
   -0.6681   -0.3004    1.3246 F   0  0  0  0  0  0  0  0  0  0  0  0
   -0.3297    1.0136   -0.5812 C   0  0  0  0  0  0  0  0  0  0  0  0
   -0.8094    0.8363   -1.8890 C   0  0  0  0  0  0  0  0  0  0  0  0
   -1.3385    1.9090   -2.6157 C   0  0  0  0  0  0  0  0  0  0  0  0
   -1.4178    3.1754   -2.0444 C   0  0  0  0  0  0  0  0  0  0  0  0
   -0.9806    3.3709   -0.7395 C   0  0  0  0  0  0  0  0  0  0  0  0
   -0.4528    2.3007   -0.0142 C   0  0  0  0  0  0  0  0  0  0  0  0
    1.6170    0.2611    0.9044 C   0  0  0  0  0  0  0  0  0  0  0  0
    1.8720   -0.0123    2.2600 C   0  0  0  0  0  0  0  0  0  0  0  0
    3.1012    0.3096    2.8376 C   0  0  0  0  0  0  0  0  0  0  0  0
    4.0947    0.9130    2.0709 C   0  0  0  0  0  0  0  0  0  0  0  0
    3.8600    1.1972    0.7277 C   0  0  0  0  0  0  0  0  0  0  0  0
    2.6312    0.8752    0.1473 C   0  0  0  0  0  0  0  0  0  0  0  0
    1.2703   -2.5977   -2.0689 H   0  0  0  0  0  0  0  0  0  0  0  0
    2.4275   -1.7064   -1.0839 H   0  0  0  0  0  0  0  0  0  0  0  0
    1.3734   -0.8461   -2.2115 H   0  0  0  0  0  0  0  0  0  0  0  0
   -0.6303   -1.7645   -0.8442 H   0  0  0  0  0  0  0  0  0  0  0  0
    0.6856   -3.5529    0.0286 H   0  0  0  0  0  0  0  0  0  0  0  0
    1.4473   -2.5309    1.0498 H   0  0  0  0  0  0  0  0  0  0  0  0
   -0.8019   -0.1342   -2.3754 H   0  0  0  0  0  0  0  0  0  0  0  0
   -1.7006    1.7501   -3.6286 H   0  0  0  0  0  0  0  0  0  0  0  0
   -1.8340    4.0047   -2.6099 H   0  0  0  0  0  0  0  0  0  0  0  0
   -1.0567    4.3524   -0.2789 H   0  0  0  0  0  0  0  0  0  0  0  0
   -0.1361    2.4739    1.0141 H   0  0  0  0  0  0  0  0  0  0  0  0
    1.1035   -0.4813    2.8739 H   0  0  0  0  0  0  0  0  0  0  0  0
    3.2798    0.0918    3.8875 H   0  0  0  0  0  0  0  0  0  0  0  0
    5.0505    1.1667    2.5219 H   0  0  0  0  0  0  0  0  0  0  0  0
    4.6329    1.6751    0.1310 H   0  0  0  0  0  0  0  0  0  0  0  0
    2.4716    1.1171   -0.9017 H   0  0  0  0  0  0  0  0  0  0  0  0
  1  2  1  0
  2  3  1  0
  2  4  1  0
  4  5  1  0
  4  6  1  0
  6  7  2  0
  7  8  1  0
  8  9  2  0
  9 10  1  0
 10 11  2  0
  4 12  1  0
 12 13  2  0
 13 14  1  0
 14 15  2  0
 15 16  1  0
 16 17  2  0
 11  6  1  0
 17 12  1  0
  1 18  1  0
  1 19  1  0
  1 20  1  0
  2 21  1  6
  3 22  1  0
  3 23  1  0
  7 24  1  0
  8 25  1  0
  9 26  1  0
 10 27  1  0
 11 28  1  0
 13 29  1  0
 14 30  1  0
 15 31  1  0
 16 32  1  0
 17 33  1  0
M  END
