
     RDKit          3D

 24 24  0  0  0  0  0  0  0  0999 V2000
    2.2654   -2.4851   -0.3448 C   0  0  0  0  0  0  0  0  0  0  0  0
    2.0143   -1.3737    0.6755 C   0  0  2  0  0  0  0  0  0  0  0  0
    0.5938   -1.3711    1.0433 N   0  0  0  0  0  0  0  0  0  0  0  0
    2.5385    0.0020    0.2037 C   0  0  0  0  0  0  0  0  0  0  0  0
    1.7611    0.6717   -1.3183 S   0  0  0  0  0  0  0  0  0  0  0  0
    0.3720    1.5686   -0.6268 C   0  0  0  0  0  0  0  0  0  0  0  0
    0.6398    2.6910    0.1728 C   0  0  0  0  0  0  0  0  0  0  0  0
   -0.3991    3.4398    0.7305 C   0  0  0  0  0  0  0  0  0  0  0  0
   -1.7221    3.0839    0.4870 C   0  0  0  0  0  0  0  0  0  0  0  0
   -2.0073    1.9840   -0.3208 C   0  0  0  0  0  0  0  0  0  0  0  0
   -0.9681    1.2318   -0.8825 C   0  0  0  0  0  0  0  0  0  0  0  0
   -1.4700   -0.2476   -1.9689 Br  0  0  0  0  0  0  0  0  0  0  0  0
    1.9996   -3.4623    0.0745 H   0  0  0  0  0  0  0  0  0  0  0  0
    1.6797   -2.3494   -1.2602 H   0  0  0  0  0  0  0  0  0  0  0  0
    3.3243   -2.5234   -0.6221 H   0  0  0  0  0  0  0  0  0  0  0  0
    2.5754   -1.6321    1.5821 H   0  0  0  0  0  0  0  0  0  0  0  0
    0.0332   -1.2483    0.1975 H   0  0  0  0  0  0  0  0  0  0  0  0
    0.3871   -0.5622    1.6282 H   0  0  0  0  0  0  0  0  0  0  0  0
    3.6089   -0.0902   -0.0143 H   0  0  0  0  0  0  0  0  0  0  0  0
    2.4561    0.7303    1.0176 H   0  0  0  0  0  0  0  0  0  0  0  0
    1.6653    3.0024    0.3612 H   0  0  0  0  0  0  0  0  0  0  0  0
   -0.1734    4.3060    1.3483 H   0  0  0  0  0  0  0  0  0  0  0  0
   -2.5324    3.6673    0.9178 H   0  0  0  0  0  0  0  0  0  0  0  0
   -3.0455    1.7215   -0.5111 H   0  0  0  0  0  0  0  0  0  0  0  0
  1  2  1  0
  2  3  1  0
  2  4  1  0
  4  5  1  0
  5  6  1  0
  6  7  2  0
  7  8  1  0
  8  9  2  0
  9 10  1  0
 10 11  2  0
 11 12  1  0
 11  6  1  0
  1 13  1  0
  1 14  1  0
  1 15  1  0
  2 16  1  1
  3 17  1  0
  3 18  1  0
  4 19  1  0
  4 20  1  0
  7 21  1  0
  8 22  1  0
  9 23  1  0
 10 24  1  0
M  END
