
     RDKit          3D

 33 33  0  0  0  0  0  0  0  0999 V2000
    2.7911   -2.9885    0.7861 C   0  0  0  0  0  0  0  0  0  0  0  0
    2.5854   -1.4714    0.7781 C   0  0  0  0  0  0  0  0  0  0  0  0
    3.9150   -0.7963    1.1367 C   0  0  0  0  0  0  0  0  0  0  0  0
    1.4819   -1.0393    1.7669 C   0  0  0  0  0  0  0  0  0  0  0  0
    0.0948   -0.7570    1.1415 C   0  0  2  0  0  0  0  0  0  0  0  0
   -0.7502   -0.1973    2.2184 N   0  0  0  0  0  0  0  0  0  0  0  0
   -0.6191   -1.9933    0.5499 C   0  0  0  0  0  0  0  0  0  0  0  0
   -0.2525   -2.3103   -1.2208 S   0  0  0  0  0  0  0  0  0  0  0  0
   -1.2384   -1.0232   -1.9819 C   0  0  0  0  0  0  0  0  0  0  0  0
   -0.5566    0.1212   -2.4245 C   0  0  0  0  0  0  0  0  0  0  0  0
   -1.2430    1.1758   -3.0303 C   0  0  0  0  0  0  0  0  0  0  0  0
   -2.6202    1.0954   -3.2127 C   0  0  0  0  0  0  0  0  0  0  0  0
   -3.3101   -0.0433   -2.7979 C   0  0  0  0  0  0  0  0  0  0  0  0
   -2.6252   -1.1035   -2.1905 C   0  0  0  0  0  0  0  0  0  0  0  0
   -3.6592   -2.6251   -1.7060 Br  0  0  0  0  0  0  0  0  0  0  0  0
    3.1417   -3.3348    1.7649 H   0  0  0  0  0  0  0  0  0  0  0  0
    3.5403   -3.2792    0.0417 H   0  0  0  0  0  0  0  0  0  0  0  0
    1.8708   -3.5290    0.5560 H   0  0  0  0  0  0  0  0  0  0  0  0
    2.3261   -1.1475   -0.2355 H   0  0  0  0  0  0  0  0  0  0  0  0
    3.8239    0.2938    1.0813 H   0  0  0  0  0  0  0  0  0  0  0  0
    4.7053   -1.0981    0.4409 H   0  0  0  0  0  0  0  0  0  0  0  0
    4.2354   -1.0602    2.1504 H   0  0  0  0  0  0  0  0  0  0  0  0
    1.3837   -1.7840    2.5686 H   0  0  0  0  0  0  0  0  0  0  0  0
    1.8086   -0.1143    2.2633 H   0  0  0  0  0  0  0  0  0  0  0  0
    0.2003    0.0313    0.3887 H   0  0  0  0  0  0  0  0  0  0  0  0
   -0.3106    0.6422    2.5957 H   0  0  0  0  0  0  0  0  0  0  0  0
   -1.6415    0.1077    1.8258 H   0  0  0  0  0  0  0  0  0  0  0  0
   -1.7060   -1.8878    0.6370 H   0  0  0  0  0  0  0  0  0  0  0  0
   -0.3576   -2.8920    1.1191 H   0  0  0  0  0  0  0  0  0  0  0  0
    0.5219    0.2010   -2.3010 H   0  0  0  0  0  0  0  0  0  0  0  0
   -0.6994    2.0563   -3.3646 H   0  0  0  0  0  0  0  0  0  0  0  0
   -3.1562    1.9134   -3.6881 H   0  0  0  0  0  0  0  0  0  0  0  0
   -4.3839   -0.1003   -2.9609 H   0  0  0  0  0  0  0  0  0  0  0  0
  1  2  1  0
  2  3  1  0
  2  4  1  0
  4  5  1  0
  5  6  1  0
  5  7  1  0
  7  8  1  0
  8  9  1  0
  9 10  2  0
 10 11  1  0
 11 12  2  0
 12 13  1  0
 13 14  2  0
 14 15  1  0
 14  9  1  0
  1 16  1  0
  1 17  1  0
  1 18  1  0
  2 19  1  0
  3 20  1  0
  3 21  1  0
  3 22  1  0
  4 23  1  0
  4 24  1  0
  5 25  1  6
  6 26  1  0
  6 27  1  0
  7 28  1  0
  7 29  1  0
 10 30  1  0
 11 31  1  0
 12 32  1  0
 13 33  1  0
M  END
