
     RDKit          3D

 46 48  0  0  0  0  0  0  0  0999 V2000
   -2.1514    1.0014   -3.7035 C   0  0  0  0  0  0  0  0  0  0  0  0
   -0.6301    1.0090   -3.8418 C   0  0  0  0  0  0  0  0  0  0  0  0
   -0.2137    2.1129   -4.8222 C   0  0  0  0  0  0  0  0  0  0  0  0
    0.1115    1.2147   -2.5009 C   0  0  0  0  0  0  0  0  0  0  0  0
   -0.0593    0.1332   -1.4187 C   0  0  2  0  0  0  0  0  0  0  0  0
    0.2507   -1.2043   -1.9763 N   0  0  0  0  0  0  0  0  0  0  0  0
   -1.4231    0.1261   -0.6894 C   0  0  0  0  0  0  0  0  0  0  0  0
   -2.1753   -0.8423   -0.6337 O   0  0  0  0  0  0  0  0  0  0  0  0
   -1.8098    1.6053    0.1953 S   0  0  0  0  0  0  0  0  0  0  0  0
   -2.3145    0.8736    1.7955 C   0  0  0  0  0  0  0  0  0  0  0  0
   -1.1779    0.5087    2.7676 C   0  0  0  0  0  0  0  0  0  0  0  0
   -0.1867    1.6342    3.0507 C   0  0  0  0  0  0  0  0  0  0  0  0
   -0.4437    2.9232    3.4930 C   0  0  0  0  0  0  0  0  0  0  0  0
    0.6402    3.7834    3.6808 C   0  0  0  0  0  0  0  0  0  0  0  0
    1.9531    3.3494    3.4350 C   0  0  0  0  0  0  0  0  0  0  0  0
    2.2071    2.0465    2.9955 C   0  0  0  0  0  0  0  0  0  0  0  0
    1.1326    1.1922    2.8060 C   0  0  0  0  0  0  0  0  0  0  0  0
    1.0930   -0.1851    2.3611 C   0  0  0  0  0  0  0  0  0  0  0  0
    2.1188   -1.0454    2.0044 C   0  0  0  0  0  0  0  0  0  0  0  0
    1.7912   -2.3466    1.6116 C   0  0  0  0  0  0  0  0  0  0  0  0
    0.4539   -2.7740    1.5823 C   0  0  0  0  0  0  0  0  0  0  0  0
   -0.5808   -1.9082    1.9420 C   0  0  0  0  0  0  0  0  0  0  0  0
   -0.2516   -0.6154    2.3181 C   0  0  0  0  0  0  0  0  0  0  0  0
   -2.4996    0.1213   -3.1559 H   0  0  0  0  0  0  0  0  0  0  0  0
   -2.5106    1.8976   -3.1875 H   0  0  0  0  0  0  0  0  0  0  0  0
   -2.6300    0.9671   -4.6881 H   0  0  0  0  0  0  0  0  0  0  0  0
   -0.3219    0.0523   -4.2826 H   0  0  0  0  0  0  0  0  0  0  0  0
   -0.6936    1.9729   -5.7967 H   0  0  0  0  0  0  0  0  0  0  0  0
    0.8707    2.1004   -4.9824 H   0  0  0  0  0  0  0  0  0  0  0  0
   -0.4911    3.1051   -4.4469 H   0  0  0  0  0  0  0  0  0  0  0  0
   -0.1544    2.1980   -2.0938 H   0  0  0  0  0  0  0  0  0  0  0  0
    1.1869    1.2749   -2.7254 H   0  0  0  0  0  0  0  0  0  0  0  0
    0.6875    0.3202   -0.6362 H   0  0  0  0  0  0  0  0  0  0  0  0
    1.2614   -1.2969   -2.0571 H   0  0  0  0  0  0  0  0  0  0  0  0
   -0.0516   -1.9094   -1.2981 H   0  0  0  0  0  0  0  0  0  0  0  0
   -2.9492    1.6282    2.2762 H   0  0  0  0  0  0  0  0  0  0  0  0
   -2.9616    0.0087    1.6172 H   0  0  0  0  0  0  0  0  0  0  0  0
   -1.6136    0.2035    3.7294 H   0  0  0  0  0  0  0  0  0  0  0  0
   -1.4552    3.2663    3.6840 H   0  0  0  0  0  0  0  0  0  0  0  0
    0.4672    4.8022    4.0208 H   0  0  0  0  0  0  0  0  0  0  0  0
    2.7807    4.0384    3.5876 H   0  0  0  0  0  0  0  0  0  0  0  0
    3.2251    1.7236    2.8096 H   0  0  0  0  0  0  0  0  0  0  0  0
    3.1558   -0.7273    2.0318 H   0  0  0  0  0  0  0  0  0  0  0  0
    2.5814   -3.0400    1.3332 H   0  0  0  0  0  0  0  0  0  0  0  0
    0.2211   -3.7927    1.2796 H   0  0  0  0  0  0  0  0  0  0  0  0
   -1.6130   -2.2438    1.9141 H   0  0  0  0  0  0  0  0  0  0  0  0
  1  2  1  0
  2  3  1  0
  2  4  1  0
  4  5  1  0
  5  6  1  0
  5  7  1  0
  7  8  2  0
  7  9  1  0
  9 10  1  0
 10 11  1  0
 11 12  1  0
 12 13  2  0
 13 14  1  0
 14 15  2  0
 15 16  1  0
 16 17  2  0
 17 18  1  0
 18 19  2  0
 19 20  1  0
 20 21  2  0
 21 22  1  0
 22 23  2  0
 23 11  1  0
 17 12  1  0
 23 18  1  0
  1 24  1  0
  1 25  1  0
  1 26  1  0
  2 27  1  0
  3 28  1  0
  3 29  1  0
  3 30  1  0
  4 31  1  0
  4 32  1  0
  5 33  1  1
  6 34  1  0
  6 35  1  0
 10 36  1  0
 10 37  1  0
 11 38  1  0
 13 39  1  0
 14 40  1  0
 15 41  1  0
 16 42  1  0
 19 43  1  0
 20 44  1  0
 21 45  1  0
 22 46  1  0
M  END
