
     RDKit          3D

 24 24  0  0  0  0  0  0  0  0999 V2000
   -1.4468    2.0756    0.9302 N   0  0  0  0  0  0  0  0  0  0  0  0
   -0.7932    0.8311    0.4610 C   0  0  1  0  0  0  0  0  0  0  0  0
   -1.5339    0.2756   -0.7665 C   0  0  0  0  0  0  0  0  0  0  0  0
   -1.0379   -1.0777   -1.2205 C   0  0  0  0  0  0  0  0  0  0  0  0
   -1.3001   -2.2247   -0.4637 C   0  0  0  0  0  0  0  0  0  0  0  0
   -1.9899   -2.1217    0.6805 F   0  0  0  0  0  0  0  0  0  0  0  0
   -0.8461   -3.4781   -0.8596 C   0  0  0  0  0  0  0  0  0  0  0  0
   -0.1145   -3.5916   -2.0373 C   0  0  0  0  0  0  0  0  0  0  0  0
    0.5142   -5.2858   -2.5906 Br  0  0  0  0  0  0  0  0  0  0  0  0
    0.1622   -2.4645   -2.8111 C   0  0  0  0  0  0  0  0  0  0  0  0
   -0.2989   -1.2096   -2.4041 C   0  0  0  0  0  0  0  0  0  0  0  0
    0.6718    1.1511    0.1021 C   0  0  0  0  0  0  0  0  0  0  0  0
    1.5821    0.1729    0.3765 N   0  0  0  0  0  0  0  0  0  0  0  0
    1.0277    2.2180   -0.3926 O   0  0  0  0  0  0  0  0  0  0  0  0
   -0.9306    2.4186    1.7423 H   0  0  0  0  0  0  0  0  0  0  0  0
   -1.2809    2.7933    0.2170 H   0  0  0  0  0  0  0  0  0  0  0  0
   -0.8104    0.1126    1.2882 H   0  0  0  0  0  0  0  0  0  0  0  0
   -1.4626    0.9864   -1.6012 H   0  0  0  0  0  0  0  0  0  0  0  0
   -2.6061    0.1827   -0.5460 H   0  0  0  0  0  0  0  0  0  0  0  0
   -1.0712   -4.3442   -0.2458 H   0  0  0  0  0  0  0  0  0  0  0  0
    0.7327   -2.5514   -3.7330 H   0  0  0  0  0  0  0  0  0  0  0  0
   -0.0763   -0.3374   -3.0170 H   0  0  0  0  0  0  0  0  0  0  0  0
    2.5366    0.3357    0.0829 H   0  0  0  0  0  0  0  0  0  0  0  0
    1.3060   -0.7755    0.5929 H   0  0  0  0  0  0  0  0  0  0  0  0
  1  2  1  0
  2  3  1  0
  3  4  1  0
  4  5  2  0
  5  6  1  0
  5  7  1  0
  7  8  2  0
  8  9  1  0
  8 10  1  0
 10 11  2  0
  2 12  1  0
 12 13  1  0
 12 14  2  0
 11  4  1  0
  1 15  1  0
  1 16  1  0
  2 17  1  1
  3 18  1  0
  3 19  1  0
  7 20  1  0
 10 21  1  0
 11 22  1  0
 13 23  1  0
 13 24  1  0
M  END
