
     RDKit          3D

 29 30  0  0  0  0  0  0  0  0999 V2000
   -2.5126   -0.7473    1.5010 C   0  0  0  0  0  0  0  0  0  0  0  0
   -1.8772   -1.3736    0.2591 C   0  0  2  0  0  0  0  0  0  0  0  0
   -2.6469   -2.5724   -0.1019 N   0  0  0  0  0  0  0  0  0  0  0  0
   -0.3992   -1.7541    0.4862 C   0  0  0  0  0  0  0  0  0  0  0  0
    0.5120   -0.5624    0.6719 C   0  0  0  0  0  0  0  0  0  0  0  0
    0.8635    0.2423   -0.4224 C   0  0  0  0  0  0  0  0  0  0  0  0
    1.7014    1.3596   -0.2656 C   0  0  0  0  0  0  0  0  0  0  0  0
    2.0558    2.1694   -1.3572 C   0  0  0  0  0  0  0  0  0  0  0  0
    2.8887    3.2762   -1.1847 C   0  0  0  0  0  0  0  0  0  0  0  0
    3.3779    3.5878    0.0803 C   0  0  0  0  0  0  0  0  0  0  0  0
    3.0357    2.7931    1.1754 C   0  0  0  0  0  0  0  0  0  0  0  0
    2.1988    1.6762    1.0183 C   0  0  0  0  0  0  0  0  0  0  0  0
    1.8461    0.8668    2.1086 C   0  0  0  0  0  0  0  0  0  0  0  0
    1.0123   -0.2406    1.9373 C   0  0  0  0  0  0  0  0  0  0  0  0
   -3.5725   -0.5259    1.3307 H   0  0  0  0  0  0  0  0  0  0  0  0
   -2.4430   -1.4143    2.3676 H   0  0  0  0  0  0  0  0  0  0  0  0
   -2.0253    0.1979    1.7607 H   0  0  0  0  0  0  0  0  0  0  0  0
   -1.9553   -0.6602   -0.5701 H   0  0  0  0  0  0  0  0  0  0  0  0
   -3.6173   -2.3134   -0.2779 H   0  0  0  0  0  0  0  0  0  0  0  0
   -2.2915   -2.9561   -0.9769 H   0  0  0  0  0  0  0  0  0  0  0  0
   -0.0244   -2.3263   -0.3739 H   0  0  0  0  0  0  0  0  0  0  0  0
   -0.3112   -2.4286    1.3486 H   0  0  0  0  0  0  0  0  0  0  0  0
    0.4811   -0.0067   -1.4105 H   0  0  0  0  0  0  0  0  0  0  0  0
    1.6841    1.9419   -2.3536 H   0  0  0  0  0  0  0  0  0  0  0  0
    3.1548    3.8937   -2.0386 H   0  0  0  0  0  0  0  0  0  0  0  0
    4.0267    4.4490    0.2163 H   0  0  0  0  0  0  0  0  0  0  0  0
    3.4281    3.0518    2.1562 H   0  0  0  0  0  0  0  0  0  0  0  0
    2.2194    1.0935    3.1047 H   0  0  0  0  0  0  0  0  0  0  0  0
    0.7544   -0.8481    2.8022 H   0  0  0  0  0  0  0  0  0  0  0  0
  1  2  1  0
  2  3  1  0
  2  4  1  0
  4  5  1  0
  5  6  2  0
  6  7  1  0
  7  8  2  0
  8  9  1  0
  9 10  2  0
 10 11  1  0
 11 12  2  0
 12 13  1  0
 13 14  2  0
 14  5  1  0
 12  7  1  0
  1 15  1  0
  1 16  1  0
  1 17  1  0
  2 18  1  6
  3 19  1  0
  3 20  1  0
  4 21  1  0
  4 22  1  0
  6 23  1  0
  8 24  1  0
  9 25  1  0
 10 26  1  0
 11 27  1  0
 13 28  1  0
 14 29  1  0
M  END
