
     RDKit          3D

 29 29  0  0  0  0  0  0  0  0999 V2000
    2.6088   -1.0282    0.9610 N   0  0  0  0  0  0  0  0  0  0  0  0
    1.7981   -2.2474    0.8835 C   0  0  0  0  0  0  0  0  0  0  0  0
    0.3142   -2.0636    0.4164 C   0  0  1  0  0  0  0  0  0  0  0  0
   -0.3669   -3.3985    0.5940 N   0  0  0  0  0  0  0  0  0  0  0  0
   -0.4091   -1.1451    1.4002 C   0  0  0  0  0  0  0  0  0  0  0  0
   -1.0001    0.0326    1.1339 C   0  0  0  0  0  0  0  0  0  0  0  0
   -1.6587    0.8605    2.1548 C   0  0  0  0  0  0  0  0  0  0  0  0
   -2.4550    0.3076    3.1663 C   0  0  0  0  0  0  0  0  0  0  0  0
   -3.0876    1.1305    4.1019 C   0  0  0  0  0  0  0  0  0  0  0  0
   -2.9386    2.5138    4.0291 C   0  0  0  0  0  0  0  0  0  0  0  0
   -2.1621    3.0760    3.0181 C   0  0  0  0  0  0  0  0  0  0  0  0
   -1.5300    2.2535    2.0822 C   0  0  0  0  0  0  0  0  0  0  0  0
    0.3093   -1.6030   -1.0878 C   0  0  0  0  0  0  0  0  0  0  0  0
   -0.9652   -1.5595   -1.5634 F   0  0  0  0  0  0  0  0  0  0  0  0
    0.8538   -0.3885   -1.3008 F   0  0  0  0  0  0  0  0  0  0  0  0
    0.9702   -2.4991   -1.8659 F   0  0  0  0  0  0  0  0  0  0  0  0
    2.1848   -0.3749    1.6226 H   0  0  0  0  0  0  0  0  0  0  0  0
    3.5263   -1.2560    1.3448 H   0  0  0  0  0  0  0  0  0  0  0  0
    1.8133   -2.7112    1.8794 H   0  0  0  0  0  0  0  0  0  0  0  0
    2.3082   -2.9501    0.2128 H   0  0  0  0  0  0  0  0  0  0  0  0
    0.0786   -4.0659   -0.0406 H   0  0  0  0  0  0  0  0  0  0  0  0
   -1.3203   -3.3017    0.2331 H   0  0  0  0  0  0  0  0  0  0  0  0
   -0.4096   -1.5092    2.4281 H   0  0  0  0  0  0  0  0  0  0  0  0
   -0.9996    0.4555    0.1319 H   0  0  0  0  0  0  0  0  0  0  0  0
   -2.6011   -0.7679    3.2308 H   0  0  0  0  0  0  0  0  0  0  0  0
   -3.7013    0.6901    4.8834 H   0  0  0  0  0  0  0  0  0  0  0  0
   -3.4321    3.1536    4.7561 H   0  0  0  0  0  0  0  0  0  0  0  0
   -2.0492    4.1552    2.9553 H   0  0  0  0  0  0  0  0  0  0  0  0
   -0.9291    2.7114    1.2995 H   0  0  0  0  0  0  0  0  0  0  0  0
  1  2  1  0
  2  3  1  0
  3  4  1  6
  3  5  1  0
  5  6  2  0
  6  7  1  0
  7  8  2  0
  8  9  1  0
  9 10  2  0
 10 11  1  0
 11 12  2  0
  3 13  1  0
 13 14  1  0
 13 15  1  0
 13 16  1  0
 12  7  1  0
  1 17  1  0
  1 18  1  0
  2 19  1  0
  2 20  1  0
  4 21  1  0
  4 22  1  0
  5 23  1  0
  6 24  1  0
  8 25  1  0
  9 26  1  0
 10 27  1  0
 11 28  1  0
 12 29  1  0
M  END
