
     RDKit          3D

 33 33  0  0  0  0  0  0  0  0999 V2000
   -2.1324    1.5390   -1.5233 N   0  0  0  0  0  0  0  0  0  0  0  0
   -2.0610    0.2649   -0.7901 C   0  0  1  0  0  0  0  0  0  0  0  0
   -0.7578   -0.4605   -1.1794 C   0  0  0  0  0  0  0  0  0  0  0  0
   -0.6474   -1.8655   -0.5719 C   0  0  0  0  0  0  0  0  0  0  0  0
    0.5815   -2.6356   -1.0704 C   0  0  0  0  0  0  0  0  0  0  0  0
    1.8909   -2.0760   -0.5716 C   0  0  0  0  0  0  0  0  0  0  0  0
    2.7401   -1.3715   -1.4351 C   0  0  0  0  0  0  0  0  0  0  0  0
    3.9466   -0.8464   -0.9690 C   0  0  0  0  0  0  0  0  0  0  0  0
    4.3160   -1.0203    0.3633 C   0  0  0  0  0  0  0  0  0  0  0  0
    3.4793   -1.7191    1.2311 C   0  0  0  0  0  0  0  0  0  0  0  0
    2.2726   -2.2446    0.7666 C   0  0  0  0  0  0  0  0  0  0  0  0
   -2.2327    0.4994    0.7310 C   0  0  0  0  0  0  0  0  0  0  0  0
   -1.1144    1.2704    1.3804 C   0  0  0  0  0  0  0  0  0  0  0  0
   -0.3850    0.8229    2.4103 C   0  0  0  0  0  0  0  0  0  0  0  0
   -3.0230    1.9951   -1.3315 H   0  0  0  0  0  0  0  0  0  0  0  0
   -2.1058    1.3602   -2.5258 H   0  0  0  0  0  0  0  0  0  0  0  0
   -2.9083   -0.3467   -1.1258 H   0  0  0  0  0  0  0  0  0  0  0  0
   -0.7156   -0.5540   -2.2731 H   0  0  0  0  0  0  0  0  0  0  0  0
    0.1099    0.1435   -0.8880 H   0  0  0  0  0  0  0  0  0  0  0  0
   -1.5428   -2.4379   -0.8446 H   0  0  0  0  0  0  0  0  0  0  0  0
   -0.6286   -1.8086    0.5216 H   0  0  0  0  0  0  0  0  0  0  0  0
    0.5085   -3.6793   -0.7380 H   0  0  0  0  0  0  0  0  0  0  0  0
    0.5781   -2.6734   -2.1669 H   0  0  0  0  0  0  0  0  0  0  0  0
    2.4638   -1.2205   -2.4759 H   0  0  0  0  0  0  0  0  0  0  0  0
    4.5965   -0.2981   -1.6457 H   0  0  0  0  0  0  0  0  0  0  0  0
    5.2542   -0.6091    0.7255 H   0  0  0  0  0  0  0  0  0  0  0  0
    3.7651   -1.8533    2.2708 H   0  0  0  0  0  0  0  0  0  0  0  0
    1.6289   -2.7857    1.4561 H   0  0  0  0  0  0  0  0  0  0  0  0
   -3.1656    1.0527    0.9032 H   0  0  0  0  0  0  0  0  0  0  0  0
   -2.3695   -0.4672    1.2313 H   0  0  0  0  0  0  0  0  0  0  0  0
   -0.8966    2.2523    0.9636 H   0  0  0  0  0  0  0  0  0  0  0  0
    0.4160    1.4282    2.8236 H   0  0  0  0  0  0  0  0  0  0  0  0
   -0.5582   -0.1517    2.8543 H   0  0  0  0  0  0  0  0  0  0  0  0
  1  2  1  0
  2  3  1  0
  3  4  1  0
  4  5  1  0
  5  6  1  0
  6  7  2  0
  7  8  1  0
  8  9  2  0
  9 10  1  0
 10 11  2  0
  2 12  1  0
 12 13  1  0
 13 14  2  3
 11  6  1  0
  1 15  1  0
  1 16  1  0
  2 17  1  6
  3 18  1  0
  3 19  1  0
  4 20  1  0
  4 21  1  0
  5 22  1  0
  5 23  1  0
  7 24  1  0
  8 25  1  0
  9 26  1  0
 10 27  1  0
 11 28  1  0
 12 29  1  0
 12 30  1  0
 13 31  1  0
 14 32  1  0
 14 33  1  0
M  END
