
     RDKit          3D

 46 47  0  0  0  0  0  0  0  0999 V2000
    2.6438   -0.1533    1.4484 N   0  0  0  0  0  0  0  0  0  0  0  0
    1.1991   -0.4804    1.4712 C   0  0  1  0  0  0  0  0  0  0  0  0
    0.3603    0.3767    0.4517 C   0  0  0  0  0  0  0  0  0  0  0  0
   -1.1773    0.4166    0.8532 C   0  0  0  0  0  0  0  0  0  0  0  0
   -1.3534    0.8985    2.3230 C   0  0  0  0  0  0  0  0  0  0  0  0
   -2.6683    1.6285    2.5739 C   0  0  0  0  0  0  0  0  0  0  0  0
   -2.7774    2.8860    1.7133 C   0  0  0  0  0  0  0  0  0  0  0  0
   -2.1525    2.7172    0.3282 C   0  0  0  0  0  0  0  0  0  0  0  0
   -2.0938    1.2508   -0.0801 C   0  0  0  0  0  0  0  0  0  0  0  0
    0.5935    0.0983   -1.0824 C   0  0  0  0  0  0  0  0  0  0  0  0
    2.0349    0.3073   -1.6042 C   0  0  0  0  0  0  0  0  0  0  0  0
    2.6904   -0.9741   -2.1051 C   0  0  0  0  0  0  0  0  0  0  0  0
    1.8771   -1.6417   -3.2135 C   0  0  0  0  0  0  0  0  0  0  0  0
    0.3670   -1.4632   -3.0584 C   0  0  0  0  0  0  0  0  0  0  0  0
   -0.0363   -1.2061   -1.6092 C   0  0  0  0  0  0  0  0  0  0  0  0
    1.0465   -2.0177    1.3770 C   0  0  0  0  0  0  0  0  0  0  0  0
   -0.1245   -2.5511    1.8247 N   0  0  0  0  0  0  0  0  0  0  0  0
    1.9320   -2.7594    0.9550 O   0  0  0  0  0  0  0  0  0  0  0  0
    3.0574   -0.6769    0.6713 H   0  0  0  0  0  0  0  0  0  0  0  0
    3.0796   -0.5919    2.2624 H   0  0  0  0  0  0  0  0  0  0  0  0
    0.8945   -0.2185    2.4893 H   0  0  0  0  0  0  0  0  0  0  0  0
    0.7086    1.4122    0.5953 H   0  0  0  0  0  0  0  0  0  0  0  0
   -1.5574   -0.6098    0.7905 H   0  0  0  0  0  0  0  0  0  0  0  0
   -0.5366    1.5779    2.5989 H   0  0  0  0  0  0  0  0  0  0  0  0
   -1.2947    0.0410    3.0021 H   0  0  0  0  0  0  0  0  0  0  0  0
   -2.7536    1.9012    3.6320 H   0  0  0  0  0  0  0  0  0  0  0  0
   -3.5069    0.9549    2.3581 H   0  0  0  0  0  0  0  0  0  0  0  0
   -2.2933    3.7298    2.2196 H   0  0  0  0  0  0  0  0  0  0  0  0
   -3.8361    3.1547    1.6150 H   0  0  0  0  0  0  0  0  0  0  0  0
   -2.7318    3.2914   -0.4039 H   0  0  0  0  0  0  0  0  0  0  0  0
   -1.1403    3.1394    0.3244 H   0  0  0  0  0  0  0  0  0  0  0  0
   -1.8274    1.1686   -1.1338 H   0  0  0  0  0  0  0  0  0  0  0  0
   -3.1107    0.8368   -0.0262 H   0  0  0  0  0  0  0  0  0  0  0  0
    0.0600    0.9081   -1.5953 H   0  0  0  0  0  0  0  0  0  0  0  0
    2.6678    0.8193   -0.8759 H   0  0  0  0  0  0  0  0  0  0  0  0
    1.9900    1.0013   -2.4565 H   0  0  0  0  0  0  0  0  0  0  0  0
    3.7003   -0.7600   -2.4733 H   0  0  0  0  0  0  0  0  0  0  0  0
    2.8098   -1.6785   -1.2762 H   0  0  0  0  0  0  0  0  0  0  0  0
    2.1237   -2.7102   -3.2338 H   0  0  0  0  0  0  0  0  0  0  0  0
    2.1801   -1.2420   -4.1890 H   0  0  0  0  0  0  0  0  0  0  0  0
   -0.1488   -2.3505   -3.4430 H   0  0  0  0  0  0  0  0  0  0  0  0
    0.0358   -0.6202   -3.6781 H   0  0  0  0  0  0  0  0  0  0  0  0
   -1.1286   -1.1491   -1.5499 H   0  0  0  0  0  0  0  0  0  0  0  0
    0.2641   -2.0698   -1.0143 H   0  0  0  0  0  0  0  0  0  0  0  0
   -0.7372   -2.0442    2.4469 H   0  0  0  0  0  0  0  0  0  0  0  0
   -0.1689   -3.5623    1.8502 H   0  0  0  0  0  0  0  0  0  0  0  0
  1  2  1  0
  2  3  1  0
  3  4  1  0
  4  5  1  0
  5  6  1  0
  6  7  1  0
  7  8  1  0
  8  9  1  0
  3 10  1  0
 10 11  1  0
 11 12  1  0
 12 13  1  0
 13 14  1  0
 14 15  1  0
  2 16  1  0
 16 17  1  0
 16 18  2  0
  9  4  1  0
 15 10  1  0
  1 19  1  0
  1 20  1  0
  2 21  1  1
  3 22  1  0
  4 23  1  0
  5 24  1  0
  5 25  1  0
  6 26  1  0
  6 27  1  0
  7 28  1  0
  7 29  1  0
  8 30  1  0
  8 31  1  0
  9 32  1  0
  9 33  1  0
 10 34  1  0
 11 35  1  0
 11 36  1  0
 12 37  1  0
 12 38  1  0
 13 39  1  0
 13 40  1  0
 14 41  1  0
 14 42  1  0
 15 43  1  0
 15 44  1  0
 17 45  1  0
 17 46  1  0
M  END
