
     RDKit          3D

 33 33  0  0  0  0  0  0  0  0999 V2000
   -2.3799   -0.2305    0.4126 C   0  0  0  0  0  0  0  0  0  0  0  0
   -0.9318   -0.0141    0.8891 C   0  0  1  0  0  0  0  0  0  0  0  0
   -0.8570   -0.5202    2.2736 N   0  0  0  0  0  0  0  0  0  0  0  0
    0.0680   -0.8709    0.0637 C   0  0  0  0  0  0  0  0  0  0  0  0
    0.1391   -0.6067   -1.4493 C   0  0  0  0  0  0  0  0  0  0  0  0
   -0.7687   -1.4924   -2.2585 C   0  0  0  0  0  0  0  0  0  0  0  0
   -0.3325   -2.4468   -3.0907 C   0  0  0  0  0  0  0  0  0  0  0  0
   -0.6343    1.5218    0.8491 C   0  0  0  0  0  0  0  0  0  0  0  0
    0.6900    1.9925    1.4218 C   0  0  0  0  0  0  0  0  0  0  0  0
    1.8095    2.0437    0.5691 C   0  0  0  0  0  0  0  0  0  0  0  0
    3.0586    2.4592    1.0345 C   0  0  0  0  0  0  0  0  0  0  0  0
    3.2137    2.8398    2.3624 C   0  0  0  0  0  0  0  0  0  0  0  0
    2.1171    2.8123    3.2215 C   0  0  0  0  0  0  0  0  0  0  0  0
    0.8618    2.3966    2.7580 C   0  0  0  0  0  0  0  0  0  0  0  0
   -0.5666    2.4572    4.0140 Br  0  0  0  0  0  0  0  0  0  0  0  0
   -3.0985    0.2390    1.0958 H   0  0  0  0  0  0  0  0  0  0  0  0
   -2.6310   -1.2958    0.3534 H   0  0  0  0  0  0  0  0  0  0  0  0
   -2.5459    0.2149   -0.5737 H   0  0  0  0  0  0  0  0  0  0  0  0
   -1.2210   -1.4703    2.3256 H   0  0  0  0  0  0  0  0  0  0  0  0
   -1.4358    0.0505    2.8898 H   0  0  0  0  0  0  0  0  0  0  0  0
    1.0758   -0.7190    0.4735 H   0  0  0  0  0  0  0  0  0  0  0  0
   -0.1430   -1.9384    0.2252 H   0  0  0  0  0  0  0  0  0  0  0  0
    1.1759   -0.7752   -1.7696 H   0  0  0  0  0  0  0  0  0  0  0  0
   -0.0808    0.4365   -1.6920 H   0  0  0  0  0  0  0  0  0  0  0  0
   -1.8403   -1.3337   -2.1725 H   0  0  0  0  0  0  0  0  0  0  0  0
   -1.0331   -3.0526   -3.6575 H   0  0  0  0  0  0  0  0  0  0  0  0
    0.7256   -2.6494   -3.2251 H   0  0  0  0  0  0  0  0  0  0  0  0
   -0.7018    1.8817   -0.1862 H   0  0  0  0  0  0  0  0  0  0  0  0
   -1.4482    2.0624    1.3494 H   0  0  0  0  0  0  0  0  0  0  0  0
    1.7170    1.7559   -0.4756 H   0  0  0  0  0  0  0  0  0  0  0  0
    3.9094    2.4836    0.3583 H   0  0  0  0  0  0  0  0  0  0  0  0
    4.1847    3.1620    2.7287 H   0  0  0  0  0  0  0  0  0  0  0  0
    2.2488    3.1211    4.2556 H   0  0  0  0  0  0  0  0  0  0  0  0
  1  2  1  0
  2  3  1  1
  2  4  1  0
  4  5  1  0
  5  6  1  0
  6  7  2  3
  2  8  1  0
  8  9  1  0
  9 10  2  0
 10 11  1  0
 11 12  2  0
 12 13  1  0
 13 14  2  0
 14 15  1  0
 14  9  1  0
  1 16  1  0
  1 17  1  0
  1 18  1  0
  3 19  1  0
  3 20  1  0
  4 21  1  0
  4 22  1  0
  5 23  1  0
  5 24  1  0
  6 25  1  0
  7 26  1  0
  7 27  1  0
  8 28  1  0
  8 29  1  0
 10 30  1  0
 11 31  1  0
 12 32  1  0
 13 33  1  0
M  END
