
     RDKit          3D

 37 36  0  0  0  0  0  0  0  0999 V2000
   -1.5935   -2.8537   -2.7131 C   0  0  0  0  0  0  0  0  0  0  0  0
   -2.8650   -1.8850   -3.5651 S   0  0  0  0  0  0  0  0  0  0  0  0
   -1.9413   -0.3413   -3.8641 C   0  0  0  0  0  0  0  0  0  0  0  0
   -2.3367    0.7957   -2.9155 C   0  0  0  0  0  0  0  0  0  0  0  0
   -1.8551    0.6325   -1.4686 C   0  0  2  0  0  0  0  0  0  0  0  0
   -2.4080    1.7243   -0.6273 N   0  0  0  0  0  0  0  0  0  0  0  0
   -0.3167    0.5750   -1.3843 C   0  0  0  0  0  0  0  0  0  0  0  0
    0.3031   -0.4822   -1.3222 O   0  0  0  0  0  0  0  0  0  0  0  0
    0.5276    2.1211   -1.4601 S   0  0  0  0  0  0  0  0  0  0  0  0
    1.7262    1.6929   -0.2415 C   0  0  0  0  0  0  0  0  0  0  0  0
    2.8893    1.4904   -0.5782 O   0  0  0  0  0  0  0  0  0  0  0  0
    1.2818    1.7812    1.2382 C   0  0  1  0  0  0  0  0  0  0  0  0
   -0.0838    1.2556    1.4789 N   0  0  0  0  0  0  0  0  0  0  0  0
    2.3261    1.1445    2.1806 C   0  0  0  0  0  0  0  0  0  0  0  0
    2.5651   -0.3615    2.0100 C   0  0  0  0  0  0  0  0  0  0  0  0
    1.2322   -1.4043    2.6978 S   0  0  0  0  0  0  0  0  0  0  0  0
    1.6585   -1.3130    4.4554 C   0  0  0  0  0  0  0  0  0  0  0  0
   -0.6671   -2.8727   -3.2925 H   0  0  0  0  0  0  0  0  0  0  0  0
   -1.9494   -3.8815   -2.6007 H   0  0  0  0  0  0  0  0  0  0  0  0
   -1.4046   -2.4512   -1.7166 H   0  0  0  0  0  0  0  0  0  0  0  0
   -2.1951   -0.0323   -4.8844 H   0  0  0  0  0  0  0  0  0  0  0  0
   -0.8627   -0.5242   -3.8581 H   0  0  0  0  0  0  0  0  0  0  0  0
   -1.9265    1.7262   -3.3307 H   0  0  0  0  0  0  0  0  0  0  0  0
   -3.4284    0.9173   -2.9328 H   0  0  0  0  0  0  0  0  0  0  0  0
   -2.2375   -0.3008   -1.0428 H   0  0  0  0  0  0  0  0  0  0  0  0
   -2.0845    2.6241   -0.9842 H   0  0  0  0  0  0  0  0  0  0  0  0
   -1.9889    1.6437    0.3082 H   0  0  0  0  0  0  0  0  0  0  0  0
    1.2501    2.8554    1.4637 H   0  0  0  0  0  0  0  0  0  0  0  0
   -0.3370    1.4626    2.4491 H   0  0  0  0  0  0  0  0  0  0  0  0
   -0.0281    0.2256    1.4749 H   0  0  0  0  0  0  0  0  0  0  0  0
    3.2868    1.6466    2.0017 H   0  0  0  0  0  0  0  0  0  0  0  0
    2.0685    1.3755    3.2216 H   0  0  0  0  0  0  0  0  0  0  0  0
    3.5037   -0.6439    2.4990 H   0  0  0  0  0  0  0  0  0  0  0  0
    2.6738   -0.6223    0.9533 H   0  0  0  0  0  0  0  0  0  0  0  0
    1.5668   -0.2886    4.8236 H   0  0  0  0  0  0  0  0  0  0  0  0
    0.9691   -1.9445    5.0222 H   0  0  0  0  0  0  0  0  0  0  0  0
    2.6758   -1.6768    4.6216 H   0  0  0  0  0  0  0  0  0  0  0  0
  1  2  1  0
  2  3  1  0
  3  4  1  0
  4  5  1  0
  5  6  1  0
  5  7  1  0
  7  8  2  0
  7  9  1  0
  9 10  1  0
 10 11  2  0
 10 12  1  0
 12 13  1  0
 12 14  1  0
 14 15  1  0
 15 16  1  0
 16 17  1  0
  1 18  1  0
  1 19  1  0
  1 20  1  0
  3 21  1  0
  3 22  1  0
  4 23  1  0
  4 24  1  0
  5 25  1  1
  6 26  1  0
  6 27  1  0
 12 28  1  1
 13 29  1  0
 13 30  1  0
 14 31  1  0
 14 32  1  0
 15 33  1  0
 15 34  1  0
 17 35  1  0
 17 36  1  0
 17 37  1  0
M  END
