
     RDKit          3D

 39 40  0  0  0  0  0  0  0  0999 V2000
    0.6474   -2.1218    0.8689 N   0  0  0  0  0  0  0  0  0  0  0  0
    0.2636   -0.9202    0.1018 C   0  0  1  0  0  0  0  0  0  0  0  0
   -1.2705   -0.9674   -0.0830 C   0  0  0  0  0  0  0  0  0  0  0  0
   -1.8113   -0.2321   -1.3310 C   0  0  0  0  0  0  0  0  0  0  0  0
   -3.2736   -0.6316   -1.5876 C   0  0  0  0  0  0  0  0  0  0  0  0
   -3.8046   -0.0631   -2.9062 C   0  0  0  0  0  0  0  0  0  0  0  0
   -3.1611    1.2649   -3.3021 C   0  0  0  0  0  0  0  0  0  0  0  0
   -2.7253    2.0588   -2.0809 C   0  0  0  0  0  0  0  0  0  0  0  0
   -1.6904    1.2998   -1.2442 C   0  0  0  0  0  0  0  0  0  0  0  0
    0.7480    0.3573    0.8305 C   0  0  0  0  0  0  0  0  0  0  0  0
    2.2496    0.4326    1.0124 C   0  0  0  0  0  0  0  0  0  0  0  0
    3.0920    0.6067   -0.0945 C   0  0  0  0  0  0  0  0  0  0  0  0
    4.4762    0.6691    0.0725 C   0  0  0  0  0  0  0  0  0  0  0  0
    5.0313    0.5610    1.3460 C   0  0  0  0  0  0  0  0  0  0  0  0
    4.2031    0.3923    2.4538 C   0  0  0  0  0  0  0  0  0  0  0  0
    2.8184    0.3294    2.2892 C   0  0  0  0  0  0  0  0  0  0  0  0
    1.6648   -2.1367    0.9669 H   0  0  0  0  0  0  0  0  0  0  0  0
    0.2833   -2.0522    1.8182 H   0  0  0  0  0  0  0  0  0  0  0  0
    0.7441   -0.9981   -0.8804 H   0  0  0  0  0  0  0  0  0  0  0  0
   -1.5690   -2.0208   -0.1865 H   0  0  0  0  0  0  0  0  0  0  0  0
   -1.7753   -0.6016    0.8208 H   0  0  0  0  0  0  0  0  0  0  0  0
   -1.2254   -0.5727   -2.1963 H   0  0  0  0  0  0  0  0  0  0  0  0
   -3.8985   -0.2706   -0.7599 H   0  0  0  0  0  0  0  0  0  0  0  0
   -3.3845   -1.7225   -1.6045 H   0  0  0  0  0  0  0  0  0  0  0  0
   -3.6422   -0.7864   -3.7146 H   0  0  0  0  0  0  0  0  0  0  0  0
   -4.8911    0.0607   -2.8219 H   0  0  0  0  0  0  0  0  0  0  0  0
   -3.8637    1.8492   -3.9067 H   0  0  0  0  0  0  0  0  0  0  0  0
   -2.2875    1.0723   -3.9376 H   0  0  0  0  0  0  0  0  0  0  0  0
   -3.6042    2.2760   -1.4606 H   0  0  0  0  0  0  0  0  0  0  0  0
   -2.3125    3.0276   -2.3844 H   0  0  0  0  0  0  0  0  0  0  0  0
   -1.7802    1.6406   -0.2059 H   0  0  0  0  0  0  0  0  0  0  0  0
   -0.6895    1.5877   -1.5881 H   0  0  0  0  0  0  0  0  0  0  0  0
    0.4542    1.2561    0.2827 H   0  0  0  0  0  0  0  0  0  0  0  0
    0.2544    0.4339    1.8086 H   0  0  0  0  0  0  0  0  0  0  0  0
    2.6748    0.6949   -1.0952 H   0  0  0  0  0  0  0  0  0  0  0  0
    5.1216    0.8027   -0.7917 H   0  0  0  0  0  0  0  0  0  0  0  0
    6.1093    0.6103    1.4752 H   0  0  0  0  0  0  0  0  0  0  0  0
    4.6359    0.3107    3.4475 H   0  0  0  0  0  0  0  0  0  0  0  0
    2.1876    0.1984    3.1653 H   0  0  0  0  0  0  0  0  0  0  0  0
  1  2  1  0
  2  3  1  0
  3  4  1  0
  4  5  1  0
  5  6  1  0
  6  7  1  0
  7  8  1  0
  8  9  1  0
  2 10  1  0
 10 11  1  0
 11 12  2  0
 12 13  1  0
 13 14  2  0
 14 15  1  0
 15 16  2  0
  9  4  1  0
 16 11  1  0
  1 17  1  0
  1 18  1  0
  2 19  1  6
  3 20  1  0
  3 21  1  0
  4 22  1  0
  5 23  1  0
  5 24  1  0
  6 25  1  0
  6 26  1  0
  7 27  1  0
  7 28  1  0
  8 29  1  0
  8 30  1  0
  9 31  1  0
  9 32  1  0
 10 33  1  0
 10 34  1  0
 12 35  1  0
 13 36  1  0
 14 37  1  0
 15 38  1  0
 16 39  1  0
M  END
