
     RDKit          3D

 34 34  0  0  0  0  0  0  0  0999 V2000
    0.0789   -2.6182   -2.2702 C   0  0  0  0  0  0  0  0  0  0  0  0
    0.6506   -2.0823   -0.9534 C   0  0  0  0  0  0  0  0  0  0  0  0
    2.0317   -2.6987   -0.7039 C   0  0  0  0  0  0  0  0  0  0  0  0
   -0.3393   -2.2886    0.2167 C   0  0  1  0  0  0  0  0  0  0  0  0
   -0.4900   -3.6876    0.6543 N   0  0  0  0  0  0  0  0  0  0  0  0
    0.0661   -1.4272    1.4297 C   0  0  0  0  0  0  0  0  0  0  0  0
    0.8022   -1.8648    2.3195 O   0  0  0  0  0  0  0  0  0  0  0  0
   -0.5081   -0.0221    1.4878 C   0  0  0  0  0  0  0  0  0  0  0  0
    0.5009    0.9991    2.0050 C   0  0  0  0  0  0  0  0  0  0  0  0
    1.5863    1.2904    0.9960 C   0  0  0  0  0  0  0  0  0  0  0  0
    2.8283    0.6489    1.0863 C   0  0  0  0  0  0  0  0  0  0  0  0
    3.8209    0.8918    0.1362 C   0  0  0  0  0  0  0  0  0  0  0  0
    3.5817    1.7780   -0.9121 C   0  0  0  0  0  0  0  0  0  0  0  0
    2.3503    2.4229   -1.0107 C   0  0  0  0  0  0  0  0  0  0  0  0
    1.3558    2.1804   -0.0619 C   0  0  0  0  0  0  0  0  0  0  0  0
    0.7454   -2.3763   -3.1053 H   0  0  0  0  0  0  0  0  0  0  0  0
   -0.0465   -3.7053   -2.2492 H   0  0  0  0  0  0  0  0  0  0  0  0
   -0.8955   -2.1662   -2.4834 H   0  0  0  0  0  0  0  0  0  0  0  0
    0.7995   -1.0026   -1.0846 H   0  0  0  0  0  0  0  0  0  0  0  0
    2.4767   -2.3254    0.2226 H   0  0  0  0  0  0  0  0  0  0  0  0
    2.7159   -2.4442   -1.5210 H   0  0  0  0  0  0  0  0  0  0  0  0
    1.9841   -3.7908   -0.6425 H   0  0  0  0  0  0  0  0  0  0  0  0
   -1.3371   -1.9545   -0.0920 H   0  0  0  0  0  0  0  0  0  0  0  0
    0.2768   -3.8962    1.3021 H   0  0  0  0  0  0  0  0  0  0  0  0
   -0.3763   -4.3220   -0.1325 H   0  0  0  0  0  0  0  0  0  0  0  0
   -0.8686    0.2657    0.4940 H   0  0  0  0  0  0  0  0  0  0  0  0
   -1.3769   -0.0622    2.1544 H   0  0  0  0  0  0  0  0  0  0  0  0
    0.9484    0.6674    2.9501 H   0  0  0  0  0  0  0  0  0  0  0  0
   -0.0201    1.9373    2.2349 H   0  0  0  0  0  0  0  0  0  0  0  0
    3.0264   -0.0526    1.8956 H   0  0  0  0  0  0  0  0  0  0  0  0
    4.7806    0.3877    0.2153 H   0  0  0  0  0  0  0  0  0  0  0  0
    4.3564    1.9680   -1.6502 H   0  0  0  0  0  0  0  0  0  0  0  0
    2.1653    3.1170   -1.8263 H   0  0  0  0  0  0  0  0  0  0  0  0
    0.4005    2.6923   -0.1524 H   0  0  0  0  0  0  0  0  0  0  0  0
  1  2  1  0
  2  3  1  0
  2  4  1  0
  4  5  1  0
  4  6  1  0
  6  7  2  0
  6  8  1  0
  8  9  1  0
  9 10  1  0
 10 11  2  0
 11 12  1  0
 12 13  2  0
 13 14  1  0
 14 15  2  0
 15 10  1  0
  1 16  1  0
  1 17  1  0
  1 18  1  0
  2 19  1  0
  3 20  1  0
  3 21  1  0
  3 22  1  0
  4 23  1  6
  5 24  1  0
  5 25  1  0
  8 26  1  0
  8 27  1  0
  9 28  1  0
  9 29  1  0
 11 30  1  0
 12 31  1  0
 13 32  1  0
 14 33  1  0
 15 34  1  0
M  END
