
     RDKit          3D

 26 25  0  0  0  0  0  0  0  0999 V2000
    1.9703    1.0444    0.5715 C   0  0  0  0  0  0  0  0  0  0  0  0
    1.3965    1.2688   -0.8314 C   0  0  0  0  0  0  0  0  0  0  0  0
    2.1837    0.4417   -1.8521 C   0  0  0  0  0  0  0  0  0  0  0  0
   -0.1392    1.0736   -0.9826 C   0  0  2  0  0  0  0  0  0  0  0  0
   -0.8910    1.8301    0.0245 N   0  0  0  0  0  0  0  0  0  0  0  0
   -0.6767   -0.3677   -1.0862 C   0  0  0  0  0  0  0  0  0  0  0  0
   -0.5075   -1.2584    0.1415 C   0  0  0  0  0  0  0  0  0  0  0  0
   -1.2467   -2.5717   -0.0149 C   0  0  0  0  0  0  0  0  0  0  0  0
   -1.3159   -3.3143    1.1291 N   0  0  0  0  0  0  0  0  0  0  0  0
   -1.7179   -2.9931   -1.0634 O   0  0  0  0  0  0  0  0  0  0  0  0
    1.8774    0.0095    0.9035 H   0  0  0  0  0  0  0  0  0  0  0  0
    1.4901    1.6889    1.3136 H   0  0  0  0  0  0  0  0  0  0  0  0
    3.0386    1.2904    0.5845 H   0  0  0  0  0  0  0  0  0  0  0  0
    1.5956    2.3244   -1.0687 H   0  0  0  0  0  0  0  0  0  0  0  0
    1.8023    0.6051   -2.8655 H   0  0  0  0  0  0  0  0  0  0  0  0
    3.2410    0.7288   -1.8467 H   0  0  0  0  0  0  0  0  0  0  0  0
    2.1318   -0.6293   -1.6316 H   0  0  0  0  0  0  0  0  0  0  0  0
   -0.3991    1.5368   -1.9452 H   0  0  0  0  0  0  0  0  0  0  0  0
   -0.5984    2.8069    0.0025 H   0  0  0  0  0  0  0  0  0  0  0  0
   -0.6770    1.4944    0.9606 H   0  0  0  0  0  0  0  0  0  0  0  0
   -0.2252   -0.8634   -1.9550 H   0  0  0  0  0  0  0  0  0  0  0  0
   -1.7487   -0.3089   -1.3258 H   0  0  0  0  0  0  0  0  0  0  0  0
    0.5463   -1.5097    0.2873 H   0  0  0  0  0  0  0  0  0  0  0  0
   -0.8805   -0.7587    1.0413 H   0  0  0  0  0  0  0  0  0  0  0  0
   -1.8694   -4.1604    1.0807 H   0  0  0  0  0  0  0  0  0  0  0  0
   -1.1539   -2.9069    2.0390 H   0  0  0  0  0  0  0  0  0  0  0  0
  1  2  1  0
  2  3  1  0
  2  4  1  0
  4  5  1  0
  4  6  1  0
  6  7  1  0
  7  8  1  0
  8  9  1  0
  8 10  2  0
  1 11  1  0
  1 12  1  0
  1 13  1  0
  2 14  1  0
  3 15  1  0
  3 16  1  0
  3 17  1  0
  4 18  1  6
  5 19  1  0
  5 20  1  0
  6 21  1  0
  6 22  1  0
  7 23  1  0
  7 24  1  0
  9 25  1  0
  9 26  1  0
M  END
