
     RDKit          3D

 38 37  0  0  0  0  0  0  0  0999 V2000
   -0.6676   -3.9315   -4.3085 C   0  0  0  0  0  0  0  0  0  0  0  0
   -0.3931   -3.6486   -2.8402 C   0  0  0  0  0  0  0  0  0  0  0  0
   -1.1624   -2.4209   -2.3531 C   0  0  0  0  0  0  0  0  0  0  0  0
   -0.8833   -2.1397   -0.8750 C   0  0  0  0  0  0  0  0  0  0  0  0
   -1.6518   -0.9081   -0.3911 C   0  0  0  0  0  0  0  0  0  0  0  0
   -1.4856   -0.6386    1.1072 C   0  0  0  0  0  0  0  0  0  0  0  0
   -0.0519   -0.3725    1.5852 C   0  0  0  0  0  0  0  0  0  0  0  0
    0.7085    0.7563    0.8588 C   0  0  2  0  0  0  0  0  0  0  0  0
    2.0691    0.8603    1.4120 N   0  0  0  0  0  0  0  0  0  0  0  0
    0.0119    2.1335    0.8402 C   0  0  0  0  0  0  0  0  0  0  0  0
    0.2245    3.0618    2.0373 C   0  0  0  0  0  0  0  0  0  0  0  0
   -0.1235    2.4412    3.3658 C   0  0  0  0  0  0  0  0  0  0  0  0
    0.9317    1.8630    4.0107 N   0  0  0  0  0  0  0  0  0  0  0  0
   -1.2539    2.4296    3.8365 O   0  0  0  0  0  0  0  0  0  0  0  0
   -0.3655   -3.0856   -4.9342 H   0  0  0  0  0  0  0  0  0  0  0  0
   -1.7319   -4.1225   -4.4790 H   0  0  0  0  0  0  0  0  0  0  0  0
   -0.1076   -4.8131   -4.6358 H   0  0  0  0  0  0  0  0  0  0  0  0
   -0.6760   -4.5253   -2.2460 H   0  0  0  0  0  0  0  0  0  0  0  0
    0.6830   -3.4942   -2.6989 H   0  0  0  0  0  0  0  0  0  0  0  0
   -0.8785   -1.5475   -2.9528 H   0  0  0  0  0  0  0  0  0  0  0  0
   -2.2376   -2.5790   -2.5010 H   0  0  0  0  0  0  0  0  0  0  0  0
   -1.1710   -3.0113   -0.2748 H   0  0  0  0  0  0  0  0  0  0  0  0
    0.1932   -1.9905   -0.7363 H   0  0  0  0  0  0  0  0  0  0  0  0
   -1.3486   -0.0281   -0.9694 H   0  0  0  0  0  0  0  0  0  0  0  0
   -2.7209   -1.0534   -0.5918 H   0  0  0  0  0  0  0  0  0  0  0  0
   -1.8755   -1.5003    1.6642 H   0  0  0  0  0  0  0  0  0  0  0  0
   -2.1263    0.2058    1.3866 H   0  0  0  0  0  0  0  0  0  0  0  0
   -0.0946   -0.1799    2.6618 H   0  0  0  0  0  0  0  0  0  0  0  0
    0.5215   -1.3041    1.4862 H   0  0  0  0  0  0  0  0  0  0  0  0
    0.8216    0.4449   -0.1872 H   0  0  0  0  0  0  0  0  0  0  0  0
    2.5356   -0.0434    1.3056 H   0  0  0  0  0  0  0  0  0  0  0  0
    2.6092    1.5073    0.8331 H   0  0  0  0  0  0  0  0  0  0  0  0
    0.3786    2.6774   -0.0417 H   0  0  0  0  0  0  0  0  0  0  0  0
   -1.0634    2.0105    0.6748 H   0  0  0  0  0  0  0  0  0  0  0  0
   -0.3919    3.9613    1.9189 H   0  0  0  0  0  0  0  0  0  0  0  0
    1.2622    3.4168    2.0646 H   0  0  0  0  0  0  0  0  0  0  0  0
    1.6631    1.4781    3.4117 H   0  0  0  0  0  0  0  0  0  0  0  0
    0.6862    1.3096    4.8205 H   0  0  0  0  0  0  0  0  0  0  0  0
  1  2  1  0
  2  3  1  0
  3  4  1  0
  4  5  1  0
  5  6  1  0
  6  7  1  0
  7  8  1  0
  8  9  1  0
  8 10  1  0
 10 11  1  0
 11 12  1  0
 12 13  1  0
 12 14  2  0
  1 15  1  0
  1 16  1  0
  1 17  1  0
  2 18  1  0
  2 19  1  0
  3 20  1  0
  3 21  1  0
  4 22  1  0
  4 23  1  0
  5 24  1  0
  5 25  1  0
  6 26  1  0
  6 27  1  0
  7 28  1  0
  7 29  1  0
  8 30  1  6
  9 31  1  0
  9 32  1  0
 10 33  1  0
 10 34  1  0
 11 35  1  0
 11 36  1  0
 13 37  1  0
 13 38  1  0
M  END
