
     RDKit          3D

 33 33  0  0  0  0  0  0  0  0999 V2000
    0.2970   -1.9912    4.1993 C   0  0  0  0  0  0  0  0  0  0  0  0
   -0.0303   -1.2460    2.9399 C   0  0  0  0  0  0  0  0  0  0  0  0
    0.4379    0.0537    2.7434 C   0  0  0  0  0  0  0  0  0  0  0  0
    0.1177    0.7816    1.5833 C   0  0  0  0  0  0  0  0  0  0  0  0
    0.6630    2.1809    1.4614 C   0  0  0  0  0  0  0  0  0  0  0  0
   -0.6970    0.1916    0.5861 C   0  0  0  0  0  0  0  0  0  0  0  0
   -1.0344    0.9434   -0.6951 C   0  0  0  0  0  0  0  0  0  0  0  0
   -0.1381    0.5778   -1.8962 C   0  0  2  0  0  0  0  0  0  0  0  0
    1.1474    1.3123   -1.8996 N   0  0  0  0  0  0  0  0  0  0  0  0
   -0.8941    0.9071   -3.2000 C   0  0  0  0  0  0  0  0  0  0  0  0
   -1.8095   -0.0188   -3.6112 N   0  0  0  0  0  0  0  0  0  0  0  0
   -0.7169    1.9359   -3.8478 O   0  0  0  0  0  0  0  0  0  0  0  0
   -1.1988   -1.1185    0.7995 C   0  0  0  0  0  0  0  0  0  0  0  0
   -2.1069   -1.8057   -0.1863 C   0  0  0  0  0  0  0  0  0  0  0  0
   -0.8590   -1.8150    1.9727 C   0  0  0  0  0  0  0  0  0  0  0  0
   -0.4556   -1.7804    4.9653 H   0  0  0  0  0  0  0  0  0  0  0  0
    0.3254   -3.0709    4.0186 H   0  0  0  0  0  0  0  0  0  0  0  0
    1.2816   -1.7010    4.5807 H   0  0  0  0  0  0  0  0  0  0  0  0
    1.0650    0.5104    3.5074 H   0  0  0  0  0  0  0  0  0  0  0  0
    1.3504    2.2576    0.6163 H   0  0  0  0  0  0  0  0  0  0  0  0
    1.2217    2.4740    2.3572 H   0  0  0  0  0  0  0  0  0  0  0  0
   -0.1521    2.9022    1.3475 H   0  0  0  0  0  0  0  0  0  0  0  0
   -2.0896    0.7591   -0.9338 H   0  0  0  0  0  0  0  0  0  0  0  0
   -1.0105    2.0272   -0.5283 H   0  0  0  0  0  0  0  0  0  0  0  0
    0.0946   -0.4929   -1.9032 H   0  0  0  0  0  0  0  0  0  0  0  0
    0.9309    2.3014   -2.0537 H   0  0  0  0  0  0  0  0  0  0  0  0
    1.6653    1.0456   -2.7381 H   0  0  0  0  0  0  0  0  0  0  0  0
   -1.7690   -0.9764   -3.2909 H   0  0  0  0  0  0  0  0  0  0  0  0
   -2.2355    0.1512   -4.5142 H   0  0  0  0  0  0  0  0  0  0  0  0
   -2.4194   -2.7925    0.1730 H   0  0  0  0  0  0  0  0  0  0  0  0
   -1.5936   -1.9583   -1.1390 H   0  0  0  0  0  0  0  0  0  0  0  0
   -3.0178   -1.2203   -0.3436 H   0  0  0  0  0  0  0  0  0  0  0  0
   -1.2481   -2.8186    2.1364 H   0  0  0  0  0  0  0  0  0  0  0  0
  1  2  1  0
  2  3  2  0
  3  4  1  0
  4  5  1  0
  4  6  2  0
  6  7  1  0
  7  8  1  0
  8  9  1  0
  8 10  1  0
 10 11  1  0
 10 12  2  0
  6 13  1  0
 13 14  1  0
 13 15  2  0
 15  2  1  0
  1 16  1  0
  1 17  1  0
  1 18  1  0
  3 19  1  0
  5 20  1  0
  5 21  1  0
  5 22  1  0
  7 23  1  0
  7 24  1  0
  8 25  1  6
  9 26  1  0
  9 27  1  0
 11 28  1  0
 11 29  1  0
 14 30  1  0
 14 31  1  0
 14 32  1  0
 15 33  1  0
M  END
