
     RDKit          3D

 17 16  0  0  0  0  0  0  0  0999 V2000
   -1.2205    1.6327   -0.3327 C   0  0  0  0  0  0  0  0  0  0  0  0
    0.2533    1.2518   -0.4468 C   0  0  2  0  0  0  0  0  0  0  0  0
    0.4503    0.3610   -1.6140 N   0  0  0  0  0  0  0  0  0  0  0  0
    0.8198    0.6647    0.8648 C   0  0  2  0  0  0  0  0  0  0  0  0
    2.1394    0.3567    0.6419 F   0  0  0  0  0  0  0  0  0  0  0  0
    0.0427   -0.5493    1.3689 C   0  0  0  0  0  0  0  0  0  0  0  0
    0.0497   -1.6452    0.5506 N   0  0  0  0  0  0  0  0  0  0  0  0
   -0.5692   -0.5645    2.4338 O   0  0  0  0  0  0  0  0  0  0  0  0
   -1.3817    2.3023    0.5190 H   0  0  0  0  0  0  0  0  0  0  0  0
   -1.5580    2.1572   -1.2337 H   0  0  0  0  0  0  0  0  0  0  0  0
   -1.8619    0.7548   -0.2004 H   0  0  0  0  0  0  0  0  0  0  0  0
    0.8251    2.1639   -0.6599 H   0  0  0  0  0  0  0  0  0  0  0  0
    1.4580    0.2033   -1.7175 H   0  0  0  0  0  0  0  0  0  0  0  0
    0.1643    0.8558   -2.4610 H   0  0  0  0  0  0  0  0  0  0  0  0
    0.8035    1.4266    1.6521 H   0  0  0  0  0  0  0  0  0  0  0  0
    0.2164   -1.4851   -0.4416 H   0  0  0  0  0  0  0  0  0  0  0  0
   -0.5716   -2.4016    0.8026 H   0  0  0  0  0  0  0  0  0  0  0  0
  1  2  1  0
  2  3  1  0
  2  4  1  0
  4  5  1  0
  4  6  1  0
  6  7  1  0
  6  8  2  0
  1  9  1  0
  1 10  1  0
  1 11  1  0
  2 12  1  6
  3 13  1  0
  3 14  1  0
  4 15  1  1
  7 16  1  0
  7 17  1  0
M  END
