
     RDKit          3D

 42 43  0  0  0  0  0  0  0  0999 V2000
    1.5767   -1.1216    2.3749 N   0  0  0  0  0  0  0  0  0  0  0  0
    1.0716   -1.2010    0.9992 C   0  0  2  0  0  0  0  0  0  0  0  0
    2.1952   -1.3583   -0.0577 C   0  0  0  0  0  0  0  0  0  0  0  0
    3.2396   -0.2631   -0.0934 C   0  0  0  0  0  0  0  0  0  0  0  0
    3.0368    0.8868   -0.8690 C   0  0  0  0  0  0  0  0  0  0  0  0
    3.9933    1.9027   -0.8941 C   0  0  0  0  0  0  0  0  0  0  0  0
    5.1633    1.7785   -0.1478 C   0  0  0  0  0  0  0  0  0  0  0  0
    5.3792    0.6373    0.6221 C   0  0  0  0  0  0  0  0  0  0  0  0
    4.4235   -0.3797    0.6488 C   0  0  0  0  0  0  0  0  0  0  0  0
    0.1880   -0.0089    0.7493 C   0  0  0  0  0  0  0  0  0  0  0  0
   -1.0563    0.0000    0.2383 C   0  0  0  0  0  0  0  0  0  0  0  0
   -1.8677   -1.1783   -0.2287 C   0  0  2  0  0  0  0  0  0  0  0  0
   -2.3946   -0.8767   -1.5649 N   0  0  0  0  0  0  0  0  0  0  0  0
   -2.9655   -1.6003    0.7816 C   0  0  0  0  0  0  0  0  0  0  0  0
   -4.0737   -0.5981    1.0244 C   0  0  0  0  0  0  0  0  0  0  0  0
   -3.9303    0.3964    2.0019 C   0  0  0  0  0  0  0  0  0  0  0  0
   -4.9465    1.3276    2.2201 C   0  0  0  0  0  0  0  0  0  0  0  0
   -6.1173    1.2726    1.4668 C   0  0  0  0  0  0  0  0  0  0  0  0
   -6.2739    0.2853    0.4961 C   0  0  0  0  0  0  0  0  0  0  0  0
   -5.2584   -0.6469    0.2762 C   0  0  0  0  0  0  0  0  0  0  0  0
    2.2048   -0.3194    2.4411 H   0  0  0  0  0  0  0  0  0  0  0  0
    2.1612   -1.9344    2.5593 H   0  0  0  0  0  0  0  0  0  0  0  0
    0.4695   -2.1149    0.9588 H   0  0  0  0  0  0  0  0  0  0  0  0
    2.7053   -2.3174    0.1082 H   0  0  0  0  0  0  0  0  0  0  0  0
    1.7448   -1.4464   -1.0561 H   0  0  0  0  0  0  0  0  0  0  0  0
    2.1284    0.9985   -1.4584 H   0  0  0  0  0  0  0  0  0  0  0  0
    3.8245    2.7907   -1.4977 H   0  0  0  0  0  0  0  0  0  0  0  0
    5.9079    2.5698   -0.1688 H   0  0  0  0  0  0  0  0  0  0  0  0
    6.2941    0.5385    1.2006 H   0  0  0  0  0  0  0  0  0  0  0  0
    4.6112   -1.2652    1.2513 H   0  0  0  0  0  0  0  0  0  0  0  0
    0.6143    0.9568    1.0200 H   0  0  0  0  0  0  0  0  0  0  0  0
   -1.5422    0.9710    0.1460 H   0  0  0  0  0  0  0  0  0  0  0  0
   -1.2094   -2.0434   -0.3605 H   0  0  0  0  0  0  0  0  0  0  0  0
   -2.9311   -1.6760   -1.8961 H   0  0  0  0  0  0  0  0  0  0  0  0
   -3.0710   -0.1166   -1.4799 H   0  0  0  0  0  0  0  0  0  0  0  0
   -2.4974   -1.8457    1.7450 H   0  0  0  0  0  0  0  0  0  0  0  0
   -3.4188   -2.5412    0.4395 H   0  0  0  0  0  0  0  0  0  0  0  0
   -3.0220    0.4520    2.5995 H   0  0  0  0  0  0  0  0  0  0  0  0
   -4.8237    2.0952    2.9797 H   0  0  0  0  0  0  0  0  0  0  0  0
   -6.9085    1.9976    1.6385 H   0  0  0  0  0  0  0  0  0  0  0  0
   -7.1892    0.2397   -0.0883 H   0  0  0  0  0  0  0  0  0  0  0  0
   -5.4002   -1.4134   -0.4819 H   0  0  0  0  0  0  0  0  0  0  0  0
  1  2  1  0
  2  3  1  0
  3  4  1  0
  4  5  2  0
  5  6  1  0
  6  7  2  0
  7  8  1  0
  8  9  2  0
  2 10  1  0
 10 11  2  3
 11 12  1  0
 12 13  1  0
 12 14  1  0
 14 15  1  0
 15 16  2  0
 16 17  1  0
 17 18  2  0
 18 19  1  0
 19 20  2  0
  9  4  1  0
 20 15  1  0
  1 21  1  0
  1 22  1  0
  2 23  1  1
  3 24  1  0
  3 25  1  0
  5 26  1  0
  6 27  1  0
  7 28  1  0
  8 29  1  0
  9 30  1  0
 10 31  1  0
 11 32  1  0
 12 33  1  6
 13 34  1  0
 13 35  1  0
 14 36  1  0
 14 37  1  0
 16 38  1  0
 17 39  1  0
 18 40  1  0
 19 41  1  0
 20 42  1  0
M  END
