
     RDKit          3D

 25 25  0  0  0  0  0  0  0  0999 V2000
   -0.8943   -0.2084   -2.2457 C   0  0  1  0  0  0  0  0  0  0  0  0
    0.5045    0.1201   -2.5965 N   0  0  0  0  0  0  0  0  0  0  0  0
   -1.2747    0.2191   -0.8149 C   0  0  0  0  0  0  0  0  0  0  0  0
   -0.4404   -0.4500    0.2532 C   0  0  0  0  0  0  0  0  0  0  0  0
   -0.6323   -1.8045    0.5584 C   0  0  0  0  0  0  0  0  0  0  0  0
    0.1500   -2.4276    1.5315 C   0  0  0  0  0  0  0  0  0  0  0  0
    1.1293   -1.7038    2.2090 C   0  0  0  0  0  0  0  0  0  0  0  0
    1.3256   -0.3556    1.9161 C   0  0  0  0  0  0  0  0  0  0  0  0
    0.5445    0.2700    0.9432 C   0  0  0  0  0  0  0  0  0  0  0  0
   -1.8945    0.4027   -3.2362 C   0  0  0  0  0  0  0  0  0  0  0  0
   -3.0755    0.0325   -3.2288 O   0  0  0  0  0  0  0  0  0  0  0  0
   -1.4411    1.4737   -4.1992 C   0  0  0  0  0  0  0  0  0  0  0  0
   -1.1342    2.9806   -3.3148 Cl  0  0  0  0  0  0  0  0  0  0  0  0
   -0.9960   -1.2955   -2.3548 H   0  0  0  0  0  0  0  0  0  0  0  0
    0.7037    1.0832   -2.3141 H   0  0  0  0  0  0  0  0  0  0  0  0
    1.1163   -0.4450   -1.9996 H   0  0  0  0  0  0  0  0  0  0  0  0
   -2.3304   -0.0130   -0.6197 H   0  0  0  0  0  0  0  0  0  0  0  0
   -1.1997    1.3096   -0.7128 H   0  0  0  0  0  0  0  0  0  0  0  0
   -1.3961   -2.3832    0.0427 H   0  0  0  0  0  0  0  0  0  0  0  0
   -0.0069   -3.4779    1.7636 H   0  0  0  0  0  0  0  0  0  0  0  0
    1.7362   -2.1894    2.9687 H   0  0  0  0  0  0  0  0  0  0  0  0
    2.0858    0.2100    2.4488 H   0  0  0  0  0  0  0  0  0  0  0  0
    0.7096    1.3240    0.7313 H   0  0  0  0  0  0  0  0  0  0  0  0
   -2.2352    1.6651   -4.9270 H   0  0  0  0  0  0  0  0  0  0  0  0
   -0.5471    1.1661   -4.7471 H   0  0  0  0  0  0  0  0  0  0  0  0
  1  2  1  0
  1  3  1  0
  3  4  1  0
  4  5  2  0
  5  6  1  0
  6  7  2  0
  7  8  1  0
  8  9  2  0
  1 10  1  0
 10 11  2  0
 10 12  1  0
 12 13  1  0
  9  4  1  0
  1 14  1  1
  2 15  1  0
  2 16  1  0
  3 17  1  0
  3 18  1  0
  5 19  1  0
  6 20  1  0
  7 21  1  0
  8 22  1  0
  9 23  1  0
 12 24  1  0
 12 25  1  0
M  END
