
     RDKit          3D

 20 19  0  0  0  0  0  0  0  0999 V2000
   -0.1316   -1.2895    2.2796 C   0  0  0  0  0  0  0  0  0  0  0  0
   -0.6573   -0.5862    1.0336 C   0  0  0  0  0  0  0  0  0  0  0  0
    0.2360    0.5771    0.5638 C   0  0  1  0  0  0  0  0  0  0  0  0
    1.5484    0.0832    0.1325 N   0  0  0  0  0  0  0  0  0  0  0  0
   -0.4429    1.4222   -0.5452 C   0  0  0  0  0  0  0  0  0  0  0  0
   -0.6813    0.7127   -1.8527 C   0  0  0  0  0  0  0  0  0  0  0  0
   -0.2184    1.1393   -3.0350 C   0  0  0  0  0  0  0  0  0  0  0  0
    0.8183   -1.7966    2.0859 H   0  0  0  0  0  0  0  0  0  0  0  0
    0.0147   -0.5788    3.0991 H   0  0  0  0  0  0  0  0  0  0  0  0
   -0.8490   -2.0464    2.6129 H   0  0  0  0  0  0  0  0  0  0  0  0
   -0.7762   -1.3301    0.2367 H   0  0  0  0  0  0  0  0  0  0  0  0
   -1.6597   -0.2008    1.2577 H   0  0  0  0  0  0  0  0  0  0  0  0
    0.3985    1.2494    1.4163 H   0  0  0  0  0  0  0  0  0  0  0  0
    2.0729   -0.2613    0.9341 H   0  0  0  0  0  0  0  0  0  0  0  0
    2.0906    0.8477   -0.2667 H   0  0  0  0  0  0  0  0  0  0  0  0
    0.1629    2.3223   -0.7166 H   0  0  0  0  0  0  0  0  0  0  0  0
   -1.4124    1.7778   -0.1735 H   0  0  0  0  0  0  0  0  0  0  0  0
   -1.2727   -0.1993   -1.8218 H   0  0  0  0  0  0  0  0  0  0  0  0
    0.3774    2.0418   -3.1241 H   0  0  0  0  0  0  0  0  0  0  0  0
   -0.4232    0.5812   -3.9433 H   0  0  0  0  0  0  0  0  0  0  0  0
  1  2  1  0
  2  3  1  0
  3  4  1  0
  3  5  1  0
  5  6  1  0
  6  7  2  3
  1  8  1  0
  1  9  1  0
  1 10  1  0
  2 11  1  0
  2 12  1  0
  3 13  1  1
  4 14  1  0
  4 15  1  0
  5 16  1  0
  5 17  1  0
  6 18  1  0
  7 19  1  0
  7 20  1  0
M  END
