
     RDKit          3D

 32 31  0  0  0  0  0  0  0  0999 V2000
   -0.6988   -0.7684   -1.8230 C   0  0  0  0  0  0  0  0  0  0  0  0
    0.6575   -1.3216   -2.2585 C   0  0  0  0  0  0  0  0  0  0  0  0
    1.1454   -0.5521   -3.4935 C   0  0  0  0  0  0  0  0  0  0  0  0
    1.7380   -1.2487   -1.1547 C   0  0  0  0  0  0  0  0  0  0  0  0
    1.5076   -2.0483    0.1429 C   0  0  2  0  0  0  0  0  0  0  0  0
    1.1807   -3.4638   -0.1557 N   0  0  0  0  0  0  0  0  0  0  0  0
    0.4584   -1.4404    1.0979 C   0  0  0  0  0  0  0  0  0  0  0  0
   -0.5798   -2.0154    1.4108 O   0  0  0  0  0  0  0  0  0  0  0  0
    0.8919    0.1247    1.7957 S   0  0  0  0  0  0  0  0  0  0  0  0
   -0.6866    0.5337    2.6092 C   0  0  0  0  0  0  0  0  0  0  0  0
   -0.5827    1.9024    3.2709 C   0  0  0  0  0  0  0  0  0  0  0  0
   -1.8886    2.2871    3.9266 C   0  0  0  0  0  0  0  0  0  0  0  0
   -1.8692    3.5042    4.5426 N   0  0  0  0  0  0  0  0  0  0  0  0
   -2.8996    1.5961    3.9310 O   0  0  0  0  0  0  0  0  0  0  0  0
   -1.1672   -1.4140   -1.0770 H   0  0  0  0  0  0  0  0  0  0  0  0
   -0.6045    0.2388   -1.4034 H   0  0  0  0  0  0  0  0  0  0  0  0
   -1.3901   -0.7152   -2.6712 H   0  0  0  0  0  0  0  0  0  0  0  0
    0.5213   -2.3665   -2.5627 H   0  0  0  0  0  0  0  0  0  0  0  0
    2.0974   -0.9563   -3.8547 H   0  0  0  0  0  0  0  0  0  0  0  0
    0.4227   -0.6288   -4.3131 H   0  0  0  0  0  0  0  0  0  0  0  0
    1.2906    0.5101   -3.2682 H   0  0  0  0  0  0  0  0  0  0  0  0
    1.9188   -0.1949   -0.9105 H   0  0  0  0  0  0  0  0  0  0  0  0
    2.6790   -1.6124   -1.5918 H   0  0  0  0  0  0  0  0  0  0  0  0
    2.4540   -2.0663    0.6998 H   0  0  0  0  0  0  0  0  0  0  0  0
    0.2435   -3.4943   -0.5663 H   0  0  0  0  0  0  0  0  0  0  0  0
    1.0650   -3.9590    0.7326 H   0  0  0  0  0  0  0  0  0  0  0  0
   -1.4869    0.5318    1.8600 H   0  0  0  0  0  0  0  0  0  0  0  0
   -0.9173   -0.2324    3.3577 H   0  0  0  0  0  0  0  0  0  0  0  0
   -0.3391    2.6733    2.5296 H   0  0  0  0  0  0  0  0  0  0  0  0
    0.1955    1.8999    4.0442 H   0  0  0  0  0  0  0  0  0  0  0  0
   -2.7314    3.8301    4.9617 H   0  0  0  0  0  0  0  0  0  0  0  0
   -1.0875    4.1423    4.4815 H   0  0  0  0  0  0  0  0  0  0  0  0
  1  2  1  0
  2  3  1  0
  2  4  1  0
  4  5  1  0
  5  6  1  0
  5  7  1  0
  7  8  2  0
  7  9  1  0
  9 10  1  0
 10 11  1  0
 11 12  1  0
 12 13  1  0
 12 14  2  0
  1 15  1  0
  1 16  1  0
  1 17  1  0
  2 18  1  0
  3 19  1  0
  3 20  1  0
  3 21  1  0
  4 22  1  0
  4 23  1  0
  5 24  1  1
  6 25  1  0
  6 26  1  0
 10 27  1  0
 10 28  1  0
 11 29  1  0
 11 30  1  0
 13 31  1  0
 13 32  1  0
M  END
