
     RDKit          3D

 22 22  0  0  0  0  0  0  0  0999 V2000
   -1.6334   -2.2302   -2.4950 N   0  0  0  0  0  0  0  0  0  0  0  0
   -1.5661   -1.2015   -1.4198 C   0  0  2  0  0  0  0  0  0  0  0  0
   -0.1196   -1.0892   -0.9112 C   0  0  0  0  0  0  0  0  0  0  0  0
    0.0799    0.0632    0.0448 C   0  0  0  0  0  0  0  0  0  0  0  0
    0.1625    1.3771   -0.4361 C   0  0  0  0  0  0  0  0  0  0  0  0
    0.3180    2.4445    0.4490 C   0  0  0  0  0  0  0  0  0  0  0  0
    0.3923    2.2092    1.8204 C   0  0  0  0  0  0  0  0  0  0  0  0
    0.3140    0.9063    2.3083 C   0  0  0  0  0  0  0  0  0  0  0  0
    0.1593   -0.1634    1.4257 C   0  0  0  0  0  0  0  0  0  0  0  0
   -2.4963   -1.6051   -0.2568 C   0  0  0  0  0  0  0  0  0  0  0  0
   -3.4954   -0.2954    0.3046 Cl  0  0  0  0  0  0  0  0  0  0  0  0
   -2.5178   -2.7585    0.1745 O   0  0  0  0  0  0  0  0  0  0  0  0
   -2.5981   -2.3123   -2.8199 H   0  0  0  0  0  0  0  0  0  0  0  0
   -1.4213   -3.1410   -2.0751 H   0  0  0  0  0  0  0  0  0  0  0  0
   -1.8999   -0.2541   -1.8571 H   0  0  0  0  0  0  0  0  0  0  0  0
    0.1916   -2.0242   -0.4259 H   0  0  0  0  0  0  0  0  0  0  0  0
    0.5672   -0.9505   -1.7573 H   0  0  0  0  0  0  0  0  0  0  0  0
    0.1094    1.5785   -1.5041 H   0  0  0  0  0  0  0  0  0  0  0  0
    0.3827    3.4608    0.0688 H   0  0  0  0  0  0  0  0  0  0  0  0
    0.5135    3.0411    2.5092 H   0  0  0  0  0  0  0  0  0  0  0  0
    0.3737    0.7229    3.3782 H   0  0  0  0  0  0  0  0  0  0  0  0
    0.0996   -1.1735    1.8268 H   0  0  0  0  0  0  0  0  0  0  0  0
  1  2  1  0
  2  3  1  0
  3  4  1  0
  4  5  2  0
  5  6  1  0
  6  7  2  0
  7  8  1  0
  8  9  2  0
  2 10  1  0
 10 11  1  0
 10 12  2  0
  9  4  1  0
  1 13  1  0
  1 14  1  0
  2 15  1  6
  3 16  1  0
  3 17  1  0
  5 18  1  0
  6 19  1  0
  7 20  1  0
  8 21  1  0
  9 22  1  0
M  END
