
     RDKit          3D

 22 21  0  0  0  0  0  0  0  0999 V2000
    3.4274    3.9005   -0.4848 C   0  0  0  0  0  0  0  0  0  0  0  0
    2.1194    3.7727    0.7589 S   0  0  0  0  0  4  0  0  0  0  0  0
    1.2979    5.0258    0.6792 O   0  0  0  0  0  0  0  0  0  0  0  0
    1.1907    2.4483   -0.0922 C   0  0  0  0  0  0  0  0  0  0  0  0
   -0.0429    2.0660    0.7234 C   0  0  0  0  0  0  0  0  0  0  0  0
   -0.8260    0.8590    0.1893 C   0  0  1  0  0  0  0  0  0  0  0  0
   -1.2301    1.0210   -1.2213 N   0  0  0  0  0  0  0  0  0  0  0  0
   -0.0637   -0.4721    0.3600 C   0  0  0  0  0  0  0  0  0  0  0  0
   -0.7772   -1.5857   -0.0011 N   0  0  0  0  0  0  0  0  0  0  0  0
    1.0901   -0.5745    0.7591 O   0  0  0  0  0  0  0  0  0  0  0  0
    2.9941    4.1381   -1.4592 H   0  0  0  0  0  0  0  0  0  0  0  0
    3.9746    2.9565   -0.5371 H   0  0  0  0  0  0  0  0  0  0  0  0
    4.1120    4.6987   -0.1884 H   0  0  0  0  0  0  0  0  0  0  0  0
    1.8722    1.6033   -0.2165 H   0  0  0  0  0  0  0  0  0  0  0  0
    0.9082    2.8220   -1.0812 H   0  0  0  0  0  0  0  0  0  0  0  0
    0.2554    1.8584    1.7599 H   0  0  0  0  0  0  0  0  0  0  0  0
   -0.7188    2.9306    0.7705 H   0  0  0  0  0  0  0  0  0  0  0  0
   -1.7398    0.7700    0.7908 H   0  0  0  0  0  0  0  0  0  0  0  0
   -1.7466    0.1925   -1.5162 H   0  0  0  0  0  0  0  0  0  0  0  0
   -0.3982    1.0322   -1.8121 H   0  0  0  0  0  0  0  0  0  0  0  0
   -0.3351   -2.4733    0.2058 H   0  0  0  0  0  0  0  0  0  0  0  0
   -1.7884   -1.5657    0.0077 H   0  0  0  0  0  0  0  0  0  0  0  0
  1  2  1  0
  2  3  2  0
  2  4  1  0
  4  5  1  0
  5  6  1  0
  6  7  1  0
  6  8  1  0
  8  9  1  0
  8 10  2  0
  1 11  1  0
  1 12  1  0
  1 13  1  0
  4 14  1  0
  4 15  1  0
  5 16  1  0
  5 17  1  0
  6 18  1  1
  7 19  1  0
  7 20  1  0
  9 21  1  0
  9 22  1  0
M  END
