
     RDKit          3D

 23 22  0  0  0  0  0  0  0  0999 V2000
    0.4089    3.2443    0.1969 C   0  0  0  0  0  0  0  0  0  0  0  0
   -0.0430    2.9205    1.8867 S   0  0  0  0  0  6  0  0  0  0  0  0
    1.1273    3.1238    2.7191 O   0  0  0  0  0  0  0  0  0  0  0  0
   -1.2702    3.6467    2.1554 O   0  0  0  0  0  0  0  0  0  0  0  0
   -0.4465    1.1823    1.9044 C   0  0  0  0  0  0  0  0  0  0  0  0
    0.7886    0.2892    1.8164 C   0  0  0  0  0  0  0  0  0  0  0  0
    0.4834   -1.1665    1.4456 C   0  0  1  0  0  0  0  0  0  0  0  0
   -0.4443   -1.8294    2.3860 N   0  0  0  0  0  0  0  0  0  0  0  0
   -0.0618   -1.2835    0.0066 C   0  0  0  0  0  0  0  0  0  0  0  0
   -0.5437   -2.5237   -0.3054 N   0  0  0  0  0  0  0  0  0  0  0  0
   -0.0528   -0.3690   -0.8102 O   0  0  0  0  0  0  0  0  0  0  0  0
    0.6006    4.3151    0.0991 H   0  0  0  0  0  0  0  0  0  0  0  0
   -0.4203    2.9548   -0.4510 H   0  0  0  0  0  0  0  0  0  0  0  0
    1.3110    2.6844   -0.0516 H   0  0  0  0  0  0  0  0  0  0  0  0
   -0.9772    1.0006    2.8455 H   0  0  0  0  0  0  0  0  0  0  0  0
   -1.1546    1.0197    1.0871 H   0  0  0  0  0  0  0  0  0  0  0  0
    1.4941    0.6929    1.0807 H   0  0  0  0  0  0  0  0  0  0  0  0
    1.3146    0.3158    2.7796 H   0  0  0  0  0  0  0  0  0  0  0  0
    1.4268   -1.7266    1.4584 H   0  0  0  0  0  0  0  0  0  0  0  0
   -0.0652   -1.7582    3.3317 H   0  0  0  0  0  0  0  0  0  0  0  0
   -1.3357   -1.3334    2.4051 H   0  0  0  0  0  0  0  0  0  0  0  0
   -0.7936   -3.1305    0.4696 H   0  0  0  0  0  0  0  0  0  0  0  0
   -1.0273   -2.6350   -1.1856 H   0  0  0  0  0  0  0  0  0  0  0  0
  1  2  1  0
  2  3  2  0
  2  4  2  0
  2  5  1  0
  5  6  1  0
  6  7  1  0
  7  8  1  0
  7  9  1  0
  9 10  1  0
  9 11  2  0
  1 12  1  0
  1 13  1  0
  1 14  1  0
  5 15  1  0
  5 16  1  0
  6 17  1  0
  6 18  1  0
  7 19  1  6
  8 20  1  0
  8 21  1  0
 10 22  1  0
 10 23  1  0
M  END
