
     RDKit          3D

 24 23  0  0  0  0  0  0  0  0999 V2000
   -0.0002    1.2846    1.0382 C   0  0  0  0  0  0  0  0  0  0  0  0
   -0.8900    0.1440    0.5453 C   0  0  0  0  0  0  0  0  0  0  0  0
   -2.1555    0.0828    1.4097 C   0  0  0  0  0  0  0  0  0  0  0  0
   -0.1992   -1.2397    0.5585 C   0  0  0  0  0  0  0  0  0  0  0  0
    0.9995   -1.4500   -0.3822 C   0  0  2  0  0  0  0  0  0  0  0  0
    2.1740   -0.6903    0.0718 N   0  0  0  0  0  0  0  0  0  0  0  0
    0.7117   -1.1291   -1.8558 C   0  0  0  0  0  0  0  0  0  0  0  0
    1.4950   -0.6088   -2.6415 O   0  0  0  0  0  0  0  0  0  0  0  0
   -0.5781   -1.5757   -2.4324 C   0  0  0  0  0  0  0  0  0  0  0  0
   -0.7198   -2.8765   -2.4920 N   0  0  0  0  0  4  0  0  0  0  0  0
   -0.8476   -4.0086   -2.5223 N   0  0  0  0  0  2  0  0  0  0  0  0
   -0.5790    2.2077    1.1545 H   0  0  0  0  0  0  0  0  0  0  0  0
    0.7979    1.5044    0.3240 H   0  0  0  0  0  0  0  0  0  0  0  0
    0.4519    1.0482    2.0072 H   0  0  0  0  0  0  0  0  0  0  0  0
   -1.2081    0.3814   -0.4762 H   0  0  0  0  0  0  0  0  0  0  0  0
   -1.9124   -0.1387    2.4546 H   0  0  0  0  0  0  0  0  0  0  0  0
   -2.6940    1.0361    1.3814 H   0  0  0  0  0  0  0  0  0  0  0  0
   -2.8383   -0.6930    1.0472 H   0  0  0  0  0  0  0  0  0  0  0  0
    0.1137   -1.4724    1.5862 H   0  0  0  0  0  0  0  0  0  0  0  0
   -0.9550   -1.9971    0.3103 H   0  0  0  0  0  0  0  0  0  0  0  0
    1.2751   -2.5121   -0.3581 H   0  0  0  0  0  0  0  0  0  0  0  0
    2.8743   -0.6877   -0.6752 H   0  0  0  0  0  0  0  0  0  0  0  0
    2.6002   -1.1511    0.8734 H   0  0  0  0  0  0  0  0  0  0  0  0
   -1.2983   -0.8267   -2.7763 H   0  0  0  0  0  0  0  0  0  0  0  0
  1  2  1  0
  2  3  1  0
  2  4  1  0
  4  5  1  0
  5  6  1  0
  5  7  1  0
  7  8  2  0
  7  9  1  0
  9 10  2  0
 10 11  2  0
  1 12  1  0
  1 13  1  0
  1 14  1  0
  2 15  1  0
  3 16  1  0
  3 17  1  0
  3 18  1  0
  4 19  1  0
  4 20  1  0
  5 21  1  6
  6 22  1  0
  6 23  1  0
  9 24  1  0
M  CHG  2  10   1  11  -1
M  END
