
     RDKit          3D

 26 26  0  0  0  0  0  0  0  0999 V2000
    0.0268   -0.7537    1.8560 N   0  0  0  0  0  0  0  0  0  0  0  0
   -0.1542   -1.5371    0.5983 C   0  0  2  0  0  0  0  0  0  0  0  0
   -1.3837   -1.0109   -0.1686 C   0  0  0  0  0  0  0  0  0  0  0  0
   -1.3163    0.4690   -0.5749 C   0  0  0  0  0  0  0  0  0  0  0  0
   -0.2342    0.7826   -1.5843 C   0  0  0  0  0  0  0  0  0  0  0  0
    0.9808    1.3126   -1.1120 C   0  0  0  0  0  0  0  0  0  0  0  0
    2.0270    1.6110   -1.9862 C   0  0  0  0  0  0  0  0  0  0  0  0
    1.8777    1.3860   -3.3506 C   0  0  0  0  0  0  0  0  0  0  0  0
    0.6813    0.8641   -3.8400 C   0  0  0  0  0  0  0  0  0  0  0  0
   -0.3699    0.5637   -2.9655 C   0  0  0  0  0  0  0  0  0  0  0  0
   -1.9605   -0.1305   -3.7398 Br  0  0  0  0  0  0  0  0  0  0  0  0
   -0.2859   -3.0702    0.8039 C   0  0  0  0  0  0  0  0  0  0  0  0
   -1.3858   -3.3724    1.5312 F   0  0  0  0  0  0  0  0  0  0  0  0
   -0.3645   -3.7308   -0.3698 F   0  0  0  0  0  0  0  0  0  0  0  0
    0.7877   -3.5507    1.4755 F   0  0  0  0  0  0  0  0  0  0  0  0
    0.8308   -1.1384    2.3595 H   0  0  0  0  0  0  0  0  0  0  0  0
   -0.7730   -0.9303    2.4693 H   0  0  0  0  0  0  0  0  0  0  0  0
    0.7445   -1.3796   -0.0077 H   0  0  0  0  0  0  0  0  0  0  0  0
   -2.2795   -1.1516    0.4512 H   0  0  0  0  0  0  0  0  0  0  0  0
   -1.5338   -1.6278   -1.0625 H   0  0  0  0  0  0  0  0  0  0  0  0
   -1.1864    1.0991    0.3143 H   0  0  0  0  0  0  0  0  0  0  0  0
   -2.2877    0.7769   -0.9806 H   0  0  0  0  0  0  0  0  0  0  0  0
    1.1193    1.4921   -0.0462 H   0  0  0  0  0  0  0  0  0  0  0  0
    2.9573    2.0193   -1.5994 H   0  0  0  0  0  0  0  0  0  0  0  0
    2.6903    1.6186   -4.0340 H   0  0  0  0  0  0  0  0  0  0  0  0
    0.5760    0.6965   -4.9093 H   0  0  0  0  0  0  0  0  0  0  0  0
  1  2  1  0
  2  3  1  0
  3  4  1  0
  4  5  1  0
  5  6  2  0
  6  7  1  0
  7  8  2  0
  8  9  1  0
  9 10  2  0
 10 11  1  0
  2 12  1  0
 12 13  1  0
 12 14  1  0
 12 15  1  0
 10  5  1  0
  1 16  1  0
  1 17  1  0
  2 18  1  6
  3 19  1  0
  3 20  1  0
  4 21  1  0
  4 22  1  0
  6 23  1  0
  7 24  1  0
  8 25  1  0
  9 26  1  0
M  END
