
     RDKit          3D

 32 32  0  0  0  0  0  0  0  0999 V2000
    3.3456    1.3424    4.4926 C   0  0  0  0  0  0  0  0  0  0  0  0
    1.8594    1.3601    4.3499 C   0  0  0  0  0  0  0  0  0  0  0  0
    1.2188    1.3282    3.1715 C   0  0  0  0  0  0  0  0  0  0  0  0
   -0.5734    1.3689    3.1618 S   0  0  0  0  0  4  0  0  0  0  0  0
   -1.0192    0.5212    4.3167 O   0  0  0  0  0  0  0  0  0  0  0  0
   -0.8137    0.4029    1.6333 C   0  0  0  0  0  0  0  0  0  0  0  0
   -2.3076    0.2357    1.3007 C   0  0  1  0  0  0  0  0  0  0  0  0
   -2.9269    1.4843    0.8132 N   0  0  0  0  0  0  0  0  0  0  0  0
   -2.5344   -0.9172    0.2893 C   0  0  0  0  0  0  0  0  0  0  0  0
   -1.8116   -0.7826   -1.0333 C   0  0  0  0  0  0  0  0  0  0  0  0
   -2.3732   -0.0345   -2.0770 C   0  0  0  0  0  0  0  0  0  0  0  0
   -1.7018    0.1035   -3.2926 C   0  0  0  0  0  0  0  0  0  0  0  0
   -0.4645   -0.5090   -3.4794 C   0  0  0  0  0  0  0  0  0  0  0  0
    0.1001   -1.2635   -2.4528 C   0  0  0  0  0  0  0  0  0  0  0  0
   -0.5702   -1.4020   -1.2362 C   0  0  0  0  0  0  0  0  0  0  0  0
    3.6801    2.2417    5.0186 H   0  0  0  0  0  0  0  0  0  0  0  0
    3.8544    1.3042    3.5242 H   0  0  0  0  0  0  0  0  0  0  0  0
    3.6537    0.4684    5.0746 H   0  0  0  0  0  0  0  0  0  0  0  0
    1.2915    1.3900    5.2792 H   0  0  0  0  0  0  0  0  0  0  0  0
    1.7857    1.2997    2.2464 H   0  0  0  0  0  0  0  0  0  0  0  0
   -0.3463   -0.5744    1.7975 H   0  0  0  0  0  0  0  0  0  0  0  0
   -0.2824    0.9135    0.8226 H   0  0  0  0  0  0  0  0  0  0  0  0
   -2.8497   -0.0451    2.2128 H   0  0  0  0  0  0  0  0  0  0  0  0
   -2.8809    2.2016    1.5363 H   0  0  0  0  0  0  0  0  0  0  0  0
   -2.4036    1.8403    0.0130 H   0  0  0  0  0  0  0  0  0  0  0  0
   -2.2364   -1.8642    0.7598 H   0  0  0  0  0  0  0  0  0  0  0  0
   -3.6100   -1.0270    0.0928 H   0  0  0  0  0  0  0  0  0  0  0  0
   -3.3434    0.4423   -1.9472 H   0  0  0  0  0  0  0  0  0  0  0  0
   -2.1483    0.6842   -4.0956 H   0  0  0  0  0  0  0  0  0  0  0  0
    0.0555   -0.4055   -4.4281 H   0  0  0  0  0  0  0  0  0  0  0  0
    1.0603   -1.7504   -2.6027 H   0  0  0  0  0  0  0  0  0  0  0  0
   -0.1186   -2.0040   -0.4508 H   0  0  0  0  0  0  0  0  0  0  0  0
  1  2  1  0
  2  3  2  0
  3  4  1  0
  4  5  2  0
  4  6  1  6
  6  7  1  0
  7  8  1  0
  7  9  1  0
  9 10  1  0
 10 11  2  0
 11 12  1  0
 12 13  2  0
 13 14  1  0
 14 15  2  0
 15 10  1  0
  1 16  1  0
  1 17  1  0
  1 18  1  0
  2 19  1  0
  3 20  1  0
  6 21  1  0
  6 22  1  0
  7 23  1  1
  8 24  1  0
  8 25  1  0
  9 26  1  0
  9 27  1  0
 11 28  1  0
 12 29  1  0
 13 30  1  0
 14 31  1  0
 15 32  1  0
M  END
