
     RDKit          3D

 23 22  0  0  0  0  0  0  0  0999 V2000
   -1.1505    2.0365   -0.5138 N   0  0  0  0  0  0  0  0  0  0  0  0
   -0.3238    1.1961    0.3557 C   0  0  1  0  0  0  0  0  0  0  0  0
   -1.1779    0.2562    1.2340 C   0  0  0  0  0  0  0  0  0  0  0  0
   -2.3786   -0.4822    0.6213 C   0  0  0  0  0  0  0  0  0  0  0  0
   -2.0731   -1.4861   -0.4820 C   0  0  0  0  0  0  0  0  0  0  0  0
   -2.2079   -0.7534   -2.0988 Cl  0  0  0  0  0  0  0  0  0  0  0  0
    0.7991    0.5089   -0.4556 C   0  0  0  0  0  0  0  0  0  0  0  0
    1.8059   -0.2113    0.4026 C   0  0  0  0  0  0  0  0  0  0  0  0
    2.1080   -1.5103    0.2821 C   0  0  0  0  0  0  0  0  0  0  0  0
   -1.5709    1.4656   -1.2508 H   0  0  0  0  0  0  0  0  0  0  0  0
   -1.9246    2.4348    0.0153 H   0  0  0  0  0  0  0  0  0  0  0  0
    0.1793    1.8843    1.0490 H   0  0  0  0  0  0  0  0  0  0  0  0
   -1.5881    0.8693    2.0498 H   0  0  0  0  0  0  0  0  0  0  0  0
   -0.5335   -0.4789    1.7305 H   0  0  0  0  0  0  0  0  0  0  0  0
   -2.8381   -1.0440    1.4463 H   0  0  0  0  0  0  0  0  0  0  0  0
   -3.1445    0.2350    0.3018 H   0  0  0  0  0  0  0  0  0  0  0  0
   -1.0818   -1.9338   -0.3746 H   0  0  0  0  0  0  0  0  0  0  0  0
   -2.8105   -2.2945   -0.4580 H   0  0  0  0  0  0  0  0  0  0  0  0
    1.3474    1.2762   -1.0189 H   0  0  0  0  0  0  0  0  0  0  0  0
    0.3854   -0.1716   -1.2038 H   0  0  0  0  0  0  0  0  0  0  0  0
    2.3261    0.3850    1.1500 H   0  0  0  0  0  0  0  0  0  0  0  0
    2.8552   -1.9679    0.9237 H   0  0  0  0  0  0  0  0  0  0  0  0
    1.6319   -2.1420   -0.4613 H   0  0  0  0  0  0  0  0  0  0  0  0
  1  2  1  0
  2  3  1  0
  3  4  1  0
  4  5  1  0
  5  6  1  0
  2  7  1  0
  7  8  1  0
  8  9  2  3
  1 10  1  0
  1 11  1  0
  2 12  1  1
  3 13  1  0
  3 14  1  0
  4 15  1  0
  4 16  1  0
  5 17  1  0
  5 18  1  0
  7 19  1  0
  7 20  1  0
  8 21  1  0
  9 22  1  0
  9 23  1  0
M  END
