
     RDKit          3D

 26 26  0  0  0  0  0  0  0  0999 V2000
    1.0076    2.8943   -0.2370 C   0  0  0  0  0  0  0  0  0  0  0  0
    0.5751    1.7363    0.6642 C   0  0  1  0  0  0  0  0  0  0  0  0
   -0.8831    1.6770    0.7087 N   0  0  0  0  0  0  0  0  0  0  0  0
    1.1958    0.4157    0.1700 C   0  0  0  0  0  0  0  0  0  0  0  0
    0.9215   -0.7979    1.0706 C   0  0  0  0  0  0  0  0  0  0  0  0
   -0.3543   -1.5403    0.7493 C   0  0  0  0  0  0  0  0  0  0  0  0
   -0.4435   -2.3346   -0.4038 C   0  0  0  0  0  0  0  0  0  0  0  0
   -1.6229   -3.0245   -0.7064 C   0  0  0  0  0  0  0  0  0  0  0  0
   -1.6483   -3.9772   -2.1484 Cl  0  0  0  0  0  0  0  0  0  0  0  0
   -2.7262   -2.9257    0.1469 C   0  0  0  0  0  0  0  0  0  0  0  0
   -4.2154   -3.7456   -0.1628 Cl  0  0  0  0  0  0  0  0  0  0  0  0
   -2.6440   -2.1378    1.2973 C   0  0  0  0  0  0  0  0  0  0  0  0
   -1.4650   -1.4507    1.5964 C   0  0  0  0  0  0  0  0  0  0  0  0
    0.6632    2.7520   -1.2676 H   0  0  0  0  0  0  0  0  0  0  0  0
    0.6062    3.8471    0.1258 H   0  0  0  0  0  0  0  0  0  0  0  0
    2.0992    2.9830   -0.2559 H   0  0  0  0  0  0  0  0  0  0  0  0
    0.9375    1.9379    1.6791 H   0  0  0  0  0  0  0  0  0  0  0  0
   -1.2497    1.4155   -0.2067 H   0  0  0  0  0  0  0  0  0  0  0  0
   -1.2653    2.5995    0.9139 H   0  0  0  0  0  0  0  0  0  0  0  0
    0.8883    0.2128   -0.8640 H   0  0  0  0  0  0  0  0  0  0  0  0
    2.2848    0.5580    0.1420 H   0  0  0  0  0  0  0  0  0  0  0  0
    0.9400   -0.5028    2.1271 H   0  0  0  0  0  0  0  0  0  0  0  0
    1.7476   -1.5127    0.9546 H   0  0  0  0  0  0  0  0  0  0  0  0
    0.4133   -2.4160   -1.0696 H   0  0  0  0  0  0  0  0  0  0  0  0
   -3.4967   -2.0478    1.9658 H   0  0  0  0  0  0  0  0  0  0  0  0
   -1.4237   -0.8274    2.4883 H   0  0  0  0  0  0  0  0  0  0  0  0
  1  2  1  0
  2  3  1  0
  2  4  1  0
  4  5  1  0
  5  6  1  0
  6  7  2  0
  7  8  1  0
  8  9  1  0
  8 10  2  0
 10 11  1  0
 10 12  1  0
 12 13  2  0
 13  6  1  0
  1 14  1  0
  1 15  1  0
  1 16  1  0
  2 17  1  1
  3 18  1  0
  3 19  1  0
  4 20  1  0
  4 21  1  0
  5 22  1  0
  5 23  1  0
  7 24  1  0
 12 25  1  0
 13 26  1  0
M  END
