
     RDKit          3D

 30 30  0  0  0  0  0  0  0  0999 V2000
   -1.3305   -2.3127    0.2896 C   0  0  0  0  0  0  0  0  0  0  0  0
   -1.7361   -0.9429   -0.2419 C   0  0  0  0  0  0  0  0  0  0  0  0
   -1.5822    0.2241    0.7596 C   0  0  1  0  0  0  0  0  0  0  0  0
   -2.5125   -0.0045    1.8842 N   0  0  0  0  0  0  0  0  0  0  0  0
   -0.1090    0.4530    1.2565 C   0  0  2  0  0  0  0  0  0  0  0  0
   -0.0140    1.6415    2.2070 C   0  0  0  0  0  0  0  0  0  0  0  0
    0.3895    1.5610    3.4827 C   0  0  0  0  0  0  0  0  0  0  0  0
    0.8936    0.6359    0.1171 C   0  0  0  0  0  0  0  0  0  0  0  0
    0.7152    1.6116   -0.8787 C   0  0  0  0  0  0  0  0  0  0  0  0
    1.6497    1.7614   -1.9066 C   0  0  0  0  0  0  0  0  0  0  0  0
    2.7743    0.9413   -1.9440 C   0  0  0  0  0  0  0  0  0  0  0  0
    4.0383    1.1443   -3.3348 Br  0  0  0  0  0  0  0  0  0  0  0  0
    2.9758   -0.0244   -0.9618 C   0  0  0  0  0  0  0  0  0  0  0  0
    2.0411   -0.1733    0.0656 C   0  0  0  0  0  0  0  0  0  0  0  0
   -1.5144   -3.0758   -0.4739 H   0  0  0  0  0  0  0  0  0  0  0  0
   -0.2670   -2.3497    0.5405 H   0  0  0  0  0  0  0  0  0  0  0  0
   -1.9062   -2.5877    1.1784 H   0  0  0  0  0  0  0  0  0  0  0  0
   -2.7840   -0.9973   -0.5665 H   0  0  0  0  0  0  0  0  0  0  0  0
   -1.1597   -0.7338   -1.1503 H   0  0  0  0  0  0  0  0  0  0  0  0
   -1.9252    1.1348    0.2509 H   0  0  0  0  0  0  0  0  0  0  0  0
   -2.4393    0.7667    2.5479 H   0  0  0  0  0  0  0  0  0  0  0  0
   -3.4714   -0.0011    1.5399 H   0  0  0  0  0  0  0  0  0  0  0  0
    0.1817   -0.4462    1.8183 H   0  0  0  0  0  0  0  0  0  0  0  0
   -0.2946    2.6146    1.8096 H   0  0  0  0  0  0  0  0  0  0  0  0
    0.4397    2.4471    4.1078 H   0  0  0  0  0  0  0  0  0  0  0  0
    0.6800    0.6149    3.9293 H   0  0  0  0  0  0  0  0  0  0  0  0
   -0.1509    2.2689   -0.8616 H   0  0  0  0  0  0  0  0  0  0  0  0
    1.4923    2.5209   -2.6678 H   0  0  0  0  0  0  0  0  0  0  0  0
    3.8545   -0.6633   -0.9831 H   0  0  0  0  0  0  0  0  0  0  0  0
    2.2152   -0.9287    0.8296 H   0  0  0  0  0  0  0  0  0  0  0  0
  1  2  1  0
  2  3  1  0
  3  4  1  0
  3  5  1  0
  5  6  1  0
  6  7  2  3
  5  8  1  0
  8  9  2  0
  9 10  1  0
 10 11  2  0
 11 12  1  0
 11 13  1  0
 13 14  2  0
 14  8  1  0
  1 15  1  0
  1 16  1  0
  1 17  1  0
  2 18  1  0
  2 19  1  0
  3 20  1  6
  4 21  1  0
  4 22  1  0
  5 23  1  1
  6 24  1  0
  7 25  1  0
  7 26  1  0
  9 27  1  0
 10 28  1  0
 13 29  1  0
 14 30  1  0
M  END
