
     RDKit          3D

 33 33  0  0  0  0  0  0  0  0999 V2000
   -2.6474   -1.6188   -1.0706 C   0  0  0  0  0  0  0  0  0  0  0  0
   -1.2021   -1.6431   -0.5267 C   0  0  0  0  0  0  0  0  0  0  0  0
   -0.8483   -0.2410   -0.2637 N   0  0  0  0  0  0  0  0  0  0  0  0
   -1.2177   -2.4744    0.7919 C   0  0  0  0  0  0  0  0  0  0  0  0
    0.1138   -2.7765    1.5050 C   0  0  0  0  0  0  0  0  0  0  0  0
    0.8584   -1.5973    2.0881 C   0  0  0  0  0  0  0  0  0  0  0  0
    0.4540   -0.9151    3.2486 C   0  0  0  0  0  0  0  0  0  0  0  0
   -1.0589   -1.4368    4.2734 Br  0  0  0  0  0  0  0  0  0  0  0  0
    1.1844    0.1824    3.7211 C   0  0  0  0  0  0  0  0  0  0  0  0
    2.3312    0.6070    3.0529 C   0  0  0  0  0  0  0  0  0  0  0  0
    2.7582   -0.0700    1.9162 C   0  0  0  0  0  0  0  0  0  0  0  0
    2.0327   -1.1644    1.4424 C   0  0  0  0  0  0  0  0  0  0  0  0
   -0.2365   -2.2790   -1.5742 C   0  0  0  0  0  0  0  0  0  0  0  0
   -0.1536   -1.5844   -2.9114 C   0  0  0  0  0  0  0  0  0  0  0  0
    0.9730   -1.0751   -3.4270 C   0  0  0  0  0  0  0  0  0  0  0  0
   -3.3525   -1.2520   -0.3146 H   0  0  0  0  0  0  0  0  0  0  0  0
   -2.9726   -2.6235   -1.3644 H   0  0  0  0  0  0  0  0  0  0  0  0
   -2.7501   -0.9680   -1.9462 H   0  0  0  0  0  0  0  0  0  0  0  0
   -1.3344    0.0974    0.5656 H   0  0  0  0  0  0  0  0  0  0  0  0
    0.1461   -0.1546   -0.0627 H   0  0  0  0  0  0  0  0  0  0  0  0
   -1.9094   -1.9984    1.4976 H   0  0  0  0  0  0  0  0  0  0  0  0
   -1.6711   -3.4498    0.5632 H   0  0  0  0  0  0  0  0  0  0  0  0
    0.7722   -3.3351    0.8286 H   0  0  0  0  0  0  0  0  0  0  0  0
   -0.0820   -3.4874    2.3189 H   0  0  0  0  0  0  0  0  0  0  0  0
    0.8701    0.7110    4.6180 H   0  0  0  0  0  0  0  0  0  0  0  0
    2.8947    1.4587    3.4251 H   0  0  0  0  0  0  0  0  0  0  0  0
    3.6579    0.2516    1.3970 H   0  0  0  0  0  0  0  0  0  0  0  0
    2.3923   -1.6779    0.5524 H   0  0  0  0  0  0  0  0  0  0  0  0
    0.7741   -2.3393   -1.1550 H   0  0  0  0  0  0  0  0  0  0  0  0
   -0.5485   -3.3152   -1.7609 H   0  0  0  0  0  0  0  0  0  0  0  0
   -1.0716   -1.5069   -3.4889 H   0  0  0  0  0  0  0  0  0  0  0  0
    0.9653   -0.5860   -4.3963 H   0  0  0  0  0  0  0  0  0  0  0  0
    1.9181   -1.1220   -2.8966 H   0  0  0  0  0  0  0  0  0  0  0  0
  1  2  1  0
  2  3  1  0
  2  4  1  0
  4  5  1  0
  5  6  1  0
  6  7  2  0
  7  8  1  0
  7  9  1  0
  9 10  2  0
 10 11  1  0
 11 12  2  0
  2 13  1  0
 13 14  1  0
 14 15  2  3
 12  6  1  0
  1 16  1  0
  1 17  1  0
  1 18  1  0
  3 19  1  0
  3 20  1  0
  4 21  1  0
  4 22  1  0
  5 23  1  0
  5 24  1  0
  9 25  1  0
 10 26  1  0
 11 27  1  0
 12 28  1  0
 13 29  1  0
 13 30  1  0
 14 31  1  0
 15 32  1  0
 15 33  1  0
M  END
