
     RDKit          3D

 44 45  0  0  0  0  0  0  0  0999 V2000
   -1.5587    0.1686   -0.4758 N   0  0  0  0  0  0  0  0  0  0  0  0
   -0.3878    0.6824    0.2469 C   0  0  1  0  0  0  0  0  0  0  0  0
   -0.4232    0.1410    1.6927 C   0  0  0  0  0  0  0  0  0  0  0  0
    0.7024    0.6420    2.6101 C   0  0  0  0  0  0  0  0  0  0  0  0
    0.7553    2.1425    2.7604 C   0  0  0  0  0  0  0  0  0  0  0  0
   -0.2900    2.8352    3.3866 C   0  0  0  0  0  0  0  0  0  0  0  0
   -0.2443    4.2245    3.5128 C   0  0  0  0  0  0  0  0  0  0  0  0
    0.8475    4.9350    3.0185 C   0  0  0  0  0  0  0  0  0  0  0  0
    1.8964    4.2567    2.4014 C   0  0  0  0  0  0  0  0  0  0  0  0
    1.8524    2.8673    2.2749 C   0  0  0  0  0  0  0  0  0  0  0  0
    0.9057    0.2918   -0.4974 C   0  0  0  0  0  0  0  0  0  0  0  0
    1.0113    0.7896   -1.9591 C   0  0  1  0  0  0  0  0  0  0  0  0
    0.9236    2.2585   -2.0363 N   0  0  0  0  0  0  0  0  0  0  0  0
    2.3447    0.3524   -2.6122 C   0  0  0  0  0  0  0  0  0  0  0  0
    2.4997   -1.1447   -2.7605 C   0  0  0  0  0  0  0  0  0  0  0  0
    3.4554   -1.8407   -2.0077 C   0  0  0  0  0  0  0  0  0  0  0  0
    3.5920   -3.2235   -2.1418 C   0  0  0  0  0  0  0  0  0  0  0  0
    2.7776   -3.9230   -3.0303 C   0  0  0  0  0  0  0  0  0  0  0  0
    1.8276   -3.2405   -3.7875 C   0  0  0  0  0  0  0  0  0  0  0  0
    1.6897   -1.8581   -3.6549 C   0  0  0  0  0  0  0  0  0  0  0  0
   -1.5241   -0.8503   -0.5116 H   0  0  0  0  0  0  0  0  0  0  0  0
   -2.4093    0.4051    0.0343 H   0  0  0  0  0  0  0  0  0  0  0  0
   -0.4766    1.7732    0.2776 H   0  0  0  0  0  0  0  0  0  0  0  0
   -1.3894    0.3990    2.1470 H   0  0  0  0  0  0  0  0  0  0  0  0
   -0.3807   -0.9564    1.6740 H   0  0  0  0  0  0  0  0  0  0  0  0
    1.6687    0.2591    2.2616 H   0  0  0  0  0  0  0  0  0  0  0  0
    0.5644    0.2068    3.6087 H   0  0  0  0  0  0  0  0  0  0  0  0
   -1.1481    2.2965    3.7822 H   0  0  0  0  0  0  0  0  0  0  0  0
   -1.0607    4.7526    3.9985 H   0  0  0  0  0  0  0  0  0  0  0  0
    0.8826    6.0167    3.1176 H   0  0  0  0  0  0  0  0  0  0  0  0
    2.7508    4.8103    2.0206 H   0  0  0  0  0  0  0  0  0  0  0  0
    2.6831    2.3558    1.7943 H   0  0  0  0  0  0  0  0  0  0  0  0
    1.7731    0.6734    0.0536 H   0  0  0  0  0  0  0  0  0  0  0  0
    0.9935   -0.8023   -0.4815 H   0  0  0  0  0  0  0  0  0  0  0  0
    0.1824    0.3775   -2.5462 H   0  0  0  0  0  0  0  0  0  0  0  0
   -0.0328    2.5314   -1.8016 H   0  0  0  0  0  0  0  0  0  0  0  0
    1.5136    2.6795   -1.3200 H   0  0  0  0  0  0  0  0  0  0  0  0
    2.4293    0.7928   -3.6155 H   0  0  0  0  0  0  0  0  0  0  0  0
    3.1898    0.7577   -2.0393 H   0  0  0  0  0  0  0  0  0  0  0  0
    4.1004   -1.3100   -1.3113 H   0  0  0  0  0  0  0  0  0  0  0  0
    4.3363   -3.7546   -1.5545 H   0  0  0  0  0  0  0  0  0  0  0  0
    2.8861   -4.9990   -3.1360 H   0  0  0  0  0  0  0  0  0  0  0  0
    1.1950   -3.7836   -4.4845 H   0  0  0  0  0  0  0  0  0  0  0  0
    0.9473   -1.3375   -4.2564 H   0  0  0  0  0  0  0  0  0  0  0  0
  1  2  1  0
  2  3  1  0
  3  4  1  0
  4  5  1  0
  5  6  2  0
  6  7  1  0
  7  8  2  0
  8  9  1  0
  9 10  2  0
  2 11  1  0
 11 12  1  0
 12 13  1  0
 12 14  1  0
 14 15  1  0
 15 16  2  0
 16 17  1  0
 17 18  2  0
 18 19  1  0
 19 20  2  0
 10  5  1  0
 20 15  1  0
  1 21  1  0
  1 22  1  0
  2 23  1  1
  3 24  1  0
  3 25  1  0
  4 26  1  0
  4 27  1  0
  6 28  1  0
  7 29  1  0
  8 30  1  0
  9 31  1  0
 10 32  1  0
 11 33  1  0
 11 34  1  0
 12 35  1  6
 13 36  1  0
 13 37  1  0
 14 38  1  0
 14 39  1  0
 16 40  1  0
 17 41  1  0
 18 42  1  0
 19 43  1  0
 20 44  1  0
M  END
