
     RDKit          3D

 24 23  0  0  0  0  0  0  0  0999 V2000
   -2.0237   -2.1558   -1.6561 N   0  0  0  0  0  0  0  0  0  0  0  0
   -1.9866   -1.1105   -0.6232 C   0  0  2  0  0  0  0  0  0  0  0  0
   -2.8524    0.0913   -1.0535 C   0  0  0  0  0  0  0  0  0  0  0  0
   -2.3713    0.8309   -2.3069 C   0  0  0  0  0  0  0  0  0  0  0  0
   -3.2868    1.9751   -2.6443 C   0  0  0  0  0  0  0  0  0  0  0  0
   -2.9112    3.2601   -2.6605 C   0  0  0  0  0  0  0  0  0  0  0  0
   -0.5427   -0.6896   -0.2609 C   0  0  0  0  0  0  0  0  0  0  0  0
    0.2579   -1.7916    0.3838 C   0  0  0  0  0  0  0  0  0  0  0  0
    0.6893   -1.7615    1.6512 C   0  0  0  0  0  0  0  0  0  0  0  0
   -1.4378   -1.8855   -2.4449 H   0  0  0  0  0  0  0  0  0  0  0  0
   -1.6071   -3.0078   -1.2815 H   0  0  0  0  0  0  0  0  0  0  0  0
   -2.4573   -1.5313    0.2752 H   0  0  0  0  0  0  0  0  0  0  0  0
   -2.9028    0.8000   -0.2156 H   0  0  0  0  0  0  0  0  0  0  0  0
   -3.8824   -0.2572   -1.2134 H   0  0  0  0  0  0  0  0  0  0  0  0
   -2.3476    0.1517   -3.1664 H   0  0  0  0  0  0  0  0  0  0  0  0
   -1.3500    1.1993   -2.1606 H   0  0  0  0  0  0  0  0  0  0  0  0
   -4.3144    1.7216   -2.8988 H   0  0  0  0  0  0  0  0  0  0  0  0
   -1.8972    3.5631   -2.4196 H   0  0  0  0  0  0  0  0  0  0  0  0
   -3.6199    4.0413   -2.9182 H   0  0  0  0  0  0  0  0  0  0  0  0
   -0.5811    0.1804    0.4072 H   0  0  0  0  0  0  0  0  0  0  0  0
   -0.0009   -0.3664   -1.1582 H   0  0  0  0  0  0  0  0  0  0  0  0
    0.5119   -2.6488   -0.2354 H   0  0  0  0  0  0  0  0  0  0  0  0
    1.2727   -2.5815    2.0592 H   0  0  0  0  0  0  0  0  0  0  0  0
    0.4734   -0.9260    2.3102 H   0  0  0  0  0  0  0  0  0  0  0  0
  1  2  1  0
  2  3  1  0
  3  4  1  0
  4  5  1  0
  5  6  2  3
  2  7  1  0
  7  8  1  0
  8  9  2  3
  1 10  1  0
  1 11  1  0
  2 12  1  1
  3 13  1  0
  3 14  1  0
  4 15  1  0
  4 16  1  0
  5 17  1  0
  6 18  1  0
  6 19  1  0
  7 20  1  0
  7 21  1  0
  8 22  1  0
  9 23  1  0
  9 24  1  0
M  END
