
     RDKit          3D

 28 27  0  0  0  0  0  0  0  0999 V2000
    2.5870    2.6204    1.3496 C   0  0  0  0  0  0  0  0  0  0  0  0
    1.1688    2.4605    1.8699 C   0  0  0  0  0  0  0  0  0  0  0  0
    0.6405    0.7234    1.8392 S   0  0  0  0  0  0  0  0  0  0  0  0
    0.1398    0.5726    0.1403 C   0  0  0  0  0  0  0  0  0  0  0  0
    0.3404    1.4787   -0.6604 O   0  0  0  0  0  0  0  0  0  0  0  0
   -0.4293   -0.8141   -0.2405 C   0  0  1  0  0  0  0  0  0  0  0  0
   -1.4162   -1.3056    0.7404 N   0  0  0  0  0  0  0  0  0  0  0  0
   -0.9858   -0.8498   -1.6776 C   0  0  0  0  0  0  0  0  0  0  0  0
   -2.1827    0.0709   -2.0160 C   0  0  0  0  0  0  0  0  0  0  0  0
   -3.4917   -0.3485   -1.3460 C   0  0  0  0  0  0  0  0  0  0  0  0
   -2.3856    0.0902   -3.5368 C   0  0  0  0  0  0  0  0  0  0  0  0
    2.8880    3.6715    1.4117 H   0  0  0  0  0  0  0  0  0  0  0  0
    2.6788    2.3133    0.3033 H   0  0  0  0  0  0  0  0  0  0  0  0
    3.2990    2.0384    1.9447 H   0  0  0  0  0  0  0  0  0  0  0  0
    1.1329    2.7956    2.9118 H   0  0  0  0  0  0  0  0  0  0  0  0
    0.4697    3.0888    1.3092 H   0  0  0  0  0  0  0  0  0  0  0  0
    0.4275   -1.5012   -0.2123 H   0  0  0  0  0  0  0  0  0  0  0  0
   -0.9863   -1.3141    1.6675 H   0  0  0  0  0  0  0  0  0  0  0  0
   -1.6579   -2.2715    0.5238 H   0  0  0  0  0  0  0  0  0  0  0  0
   -1.2538   -1.8860   -1.9264 H   0  0  0  0  0  0  0  0  0  0  0  0
   -0.1569   -0.5907   -2.3513 H   0  0  0  0  0  0  0  0  0  0  0  0
   -1.9577    1.0975   -1.7065 H   0  0  0  0  0  0  0  0  0  0  0  0
   -3.6992   -1.4119   -1.5049 H   0  0  0  0  0  0  0  0  0  0  0  0
   -4.3361    0.2217   -1.7495 H   0  0  0  0  0  0  0  0  0  0  0  0
   -3.4717   -0.1538   -0.2707 H   0  0  0  0  0  0  0  0  0  0  0  0
   -2.6272   -0.9080   -3.9178 H   0  0  0  0  0  0  0  0  0  0  0  0
   -3.2020    0.7660   -3.8135 H   0  0  0  0  0  0  0  0  0  0  0  0
   -1.4815    0.4397   -4.0466 H   0  0  0  0  0  0  0  0  0  0  0  0
  1  2  1  0
  2  3  1  0
  3  4  1  0
  4  5  2  0
  4  6  1  0
  6  7  1  0
  6  8  1  0
  8  9  1  0
  9 10  1  0
  9 11  1  0
  1 12  1  0
  1 13  1  0
  1 14  1  0
  2 15  1  0
  2 16  1  0
  6 17  1  6
  7 18  1  0
  7 19  1  0
  8 20  1  0
  8 21  1  0
  9 22  1  0
 10 23  1  0
 10 24  1  0
 10 25  1  0
 11 26  1  0
 11 27  1  0
 11 28  1  0
M  END
