
     RDKit          3D

 28 27  0  0  0  0  0  0  0  0999 V2000
    3.7362   -0.5470   -2.0343 C   0  0  0  0  0  0  0  0  0  0  0  0
    3.4481   -1.9940   -1.6728 C   0  0  0  0  0  0  0  0  0  0  0  0
    2.4877   -2.1208   -0.1365 S   0  0  0  0  0  0  0  0  0  0  0  0
    0.8788   -1.6735   -0.7303 C   0  0  0  0  0  0  0  0  0  0  0  0
    0.6365   -1.5937   -1.9299 O   0  0  0  0  0  0  0  0  0  0  0  0
   -0.1864   -1.4028    0.3577 C   0  0  1  0  0  0  0  0  0  0  0  0
   -0.2781   -2.5577    1.2843 N   0  0  0  0  0  0  0  0  0  0  0  0
    0.0631   -0.0709    1.1198 C   0  0  1  0  0  0  0  0  0  0  0  0
    0.1300    1.1083    0.1362 C   0  0  0  0  0  0  0  0  0  0  0  0
   -1.0309    0.1709    2.1886 C   0  0  0  0  0  0  0  0  0  0  0  0
   -0.8067    1.4175    3.0351 C   0  0  0  0  0  0  0  0  0  0  0  0
    4.2863   -0.0366   -1.2364 H   0  0  0  0  0  0  0  0  0  0  0  0
    2.8198    0.0155   -2.2379 H   0  0  0  0  0  0  0  0  0  0  0  0
    4.3535   -0.5069   -2.9380 H   0  0  0  0  0  0  0  0  0  0  0  0
    4.3968   -2.5162   -1.5103 H   0  0  0  0  0  0  0  0  0  0  0  0
    2.9365   -2.5094   -2.4916 H   0  0  0  0  0  0  0  0  0  0  0  0
   -1.1521   -1.3355   -0.1600 H   0  0  0  0  0  0  0  0  0  0  0  0
   -0.4715   -3.4036    0.7466 H   0  0  0  0  0  0  0  0  0  0  0  0
    0.6358   -2.7043    1.7181 H   0  0  0  0  0  0  0  0  0  0  0  0
    1.0315   -0.1267    1.6343 H   0  0  0  0  0  0  0  0  0  0  0  0
   -0.8256    1.2444   -0.3812 H   0  0  0  0  0  0  0  0  0  0  0  0
    0.9066    0.9592   -0.6200 H   0  0  0  0  0  0  0  0  0  0  0  0
    0.3765    2.0428    0.6488 H   0  0  0  0  0  0  0  0  0  0  0  0
   -2.0147    0.2372    1.7080 H   0  0  0  0  0  0  0  0  0  0  0  0
   -1.0720   -0.6827    2.8749 H   0  0  0  0  0  0  0  0  0  0  0  0
   -1.5347    1.4497    3.8524 H   0  0  0  0  0  0  0  0  0  0  0  0
    0.1956    1.4199    3.4747 H   0  0  0  0  0  0  0  0  0  0  0  0
   -0.9347    2.3322    2.4495 H   0  0  0  0  0  0  0  0  0  0  0  0
  1  2  1  0
  2  3  1  0
  3  4  1  0
  4  5  2  0
  4  6  1  0
  6  7  1  0
  6  8  1  0
  8  9  1  0
  8 10  1  0
 10 11  1  0
  1 12  1  0
  1 13  1  0
  1 14  1  0
  2 15  1  0
  2 16  1  0
  6 17  1  6
  7 18  1  0
  7 19  1  0
  8 20  1  1
  9 21  1  0
  9 22  1  0
  9 23  1  0
 10 24  1  0
 10 25  1  0
 11 26  1  0
 11 27  1  0
 11 28  1  0
M  END
