
     RDKit          3D

 26 25  0  0  0  0  0  0  0  0999 V2000
    2.7806    0.0188   -3.0957 C   0  0  0  0  0  0  0  0  0  0  0  0
    3.1631    0.9961   -1.9976 C   0  0  0  0  0  0  0  0  0  0  0  0
    2.4787    0.4957   -0.3910 S   0  0  0  0  0  0  0  0  0  0  0  0
    0.7835    0.9553   -0.6163 C   0  0  0  0  0  0  0  0  0  0  0  0
    0.4464    1.7186   -1.5159 O   0  0  0  0  0  0  0  0  0  0  0  0
   -0.1837    0.4085    0.4619 C   0  0  1  0  0  0  0  0  0  0  0  0
   -1.5190    1.0298    0.2985 N   0  0  0  0  0  0  0  0  0  0  0  0
   -0.3206   -1.1199    0.3651 C   0  0  0  0  0  0  0  0  0  0  0  0
   -1.2340   -1.7657    1.4092 C   0  0  0  0  0  0  0  0  0  0  0  0
   -0.7177   -1.4899    3.1388 S   0  0  0  0  0  0  0  0  0  0  0  0
    0.7904   -2.4908    3.1696 C   0  0  0  0  0  0  0  0  0  0  0  0
    3.2378    0.3271   -4.0419 H   0  0  0  0  0  0  0  0  0  0  0  0
    1.6979   -0.0209   -3.2516 H   0  0  0  0  0  0  0  0  0  0  0  0
    3.1361   -0.9930   -2.8727 H   0  0  0  0  0  0  0  0  0  0  0  0
    2.8500    2.0137   -2.2508 H   0  0  0  0  0  0  0  0  0  0  0  0
    4.2536    1.0129   -1.8989 H   0  0  0  0  0  0  0  0  0  0  0  0
    0.2181    0.7222    1.4320 H   0  0  0  0  0  0  0  0  0  0  0  0
   -1.3954    1.9964   -0.0142 H   0  0  0  0  0  0  0  0  0  0  0  0
   -1.9776    1.0798    1.2084 H   0  0  0  0  0  0  0  0  0  0  0  0
   -0.7080   -1.3791   -0.6305 H   0  0  0  0  0  0  0  0  0  0  0  0
    0.6647   -1.5967    0.4143 H   0  0  0  0  0  0  0  0  0  0  0  0
   -1.2896   -2.8459    1.2351 H   0  0  0  0  0  0  0  0  0  0  0  0
   -2.2555   -1.3852    1.3071 H   0  0  0  0  0  0  0  0  0  0  0  0
    1.5663   -2.0387    2.5475 H   0  0  0  0  0  0  0  0  0  0  0  0
    0.5843   -3.5077    2.8261 H   0  0  0  0  0  0  0  0  0  0  0  0
    1.1622   -2.5419    4.1965 H   0  0  0  0  0  0  0  0  0  0  0  0
  1  2  1  0
  2  3  1  0
  3  4  1  0
  4  5  2  0
  4  6  1  0
  6  7  1  0
  6  8  1  0
  8  9  1  0
  9 10  1  0
 10 11  1  0
  1 12  1  0
  1 13  1  0
  1 14  1  0
  2 15  1  0
  2 16  1  0
  6 17  1  1
  7 18  1  0
  7 19  1  0
  8 20  1  0
  8 21  1  0
  9 22  1  0
  9 23  1  0
 11 24  1  0
 11 25  1  0
 11 26  1  0
M  END
