
     RDKit          3D

 32 32  0  0  0  0  0  0  0  0999 V2000
   -0.0580   -2.8172   -2.9837 C   0  0  0  0  0  0  0  0  0  0  0  0
   -0.0412   -1.5026   -2.1704 C   0  0  0  0  0  0  0  0  0  0  0  0
    0.0886   -0.4242   -3.1939 N   0  0  0  0  0  0  0  0  0  0  0  0
   -1.4316   -1.2894   -1.4928 C   0  0  0  0  0  0  0  0  0  0  0  0
   -1.9002   -2.3239   -0.5012 C   0  0  0  0  0  0  0  0  0  0  0  0
   -2.7987   -3.2771   -0.7810 C   0  0  0  0  0  0  0  0  0  0  0  0
    1.2231   -1.4934   -1.1930 C   0  0  2  0  0  0  0  0  0  0  0  0
    1.3190   -2.5844   -0.2142 N   0  0  0  0  0  0  0  0  0  0  0  0
    1.4881   -0.1462   -0.5206 C   0  0  0  0  0  0  0  0  0  0  0  0
    0.7640    0.2915    0.5998 C   0  0  0  0  0  0  0  0  0  0  0  0
    1.0182    1.5387    1.1763 C   0  0  0  0  0  0  0  0  0  0  0  0
    2.0036    2.3671    0.6462 C   0  0  0  0  0  0  0  0  0  0  0  0
    2.7397    1.9478   -0.4580 C   0  0  0  0  0  0  0  0  0  0  0  0
    2.4860    0.7016   -1.0350 C   0  0  0  0  0  0  0  0  0  0  0  0
   -0.8709   -2.8199   -3.7204 H   0  0  0  0  0  0  0  0  0  0  0  0
   -0.2001   -3.6954   -2.3465 H   0  0  0  0  0  0  0  0  0  0  0  0
    0.8814   -2.9594   -3.5313 H   0  0  0  0  0  0  0  0  0  0  0  0
    0.1081    0.4804   -2.7171 H   0  0  0  0  0  0  0  0  0  0  0  0
    0.9921   -0.5048   -3.6595 H   0  0  0  0  0  0  0  0  0  0  0  0
   -1.4627   -0.3128   -0.9940 H   0  0  0  0  0  0  0  0  0  0  0  0
   -2.1932   -1.2144   -2.2842 H   0  0  0  0  0  0  0  0  0  0  0  0
   -1.5296   -2.2487    0.5168 H   0  0  0  0  0  0  0  0  0  0  0  0
   -3.1266   -3.9767   -0.0181 H   0  0  0  0  0  0  0  0  0  0  0  0
   -3.2300   -3.3803   -1.7726 H   0  0  0  0  0  0  0  0  0  0  0  0
    2.0896   -1.6722   -1.8467 H   0  0  0  0  0  0  0  0  0  0  0  0
    1.1457   -3.4760   -0.6722 H   0  0  0  0  0  0  0  0  0  0  0  0
    0.5986   -2.4853    0.4930 H   0  0  0  0  0  0  0  0  0  0  0  0
   -0.0053   -0.3334    1.0429 H   0  0  0  0  0  0  0  0  0  0  0  0
    0.4482    1.8607    2.0441 H   0  0  0  0  0  0  0  0  0  0  0  0
    2.2025    3.3351    1.0982 H   0  0  0  0  0  0  0  0  0  0  0  0
    3.5163    2.5881   -0.8682 H   0  0  0  0  0  0  0  0  0  0  0  0
    3.0807    0.3929   -1.8921 H   0  0  0  0  0  0  0  0  0  0  0  0
  1  2  1  0
  2  3  1  0
  2  4  1  0
  4  5  1  0
  5  6  2  3
  2  7  1  0
  7  8  1  0
  7  9  1  0
  9 10  2  0
 10 11  1  0
 11 12  2  0
 12 13  1  0
 13 14  2  0
 14  9  1  0
  1 15  1  0
  1 16  1  0
  1 17  1  0
  3 18  1  0
  3 19  1  0
  4 20  1  0
  4 21  1  0
  5 22  1  0
  6 23  1  0
  6 24  1  0
  7 25  1  6
  8 26  1  0
  8 27  1  0
 10 28  1  0
 11 29  1  0
 12 30  1  0
 13 31  1  0
 14 32  1  0
M  END
