
     RDKit          3D

 36 36  0  0  0  0  0  0  0  0999 V2000
    2.6278   -3.2442    0.7641 C   0  0  0  0  0  0  0  0  0  0  0  0
    1.2311   -3.6376    1.1592 C   0  0  0  0  0  0  0  0  0  0  0  0
    1.1623   -4.7279    2.1962 C   0  0  0  0  0  0  0  0  0  0  0  0
    0.1062   -3.0828    0.6671 C   0  0  0  0  0  0  0  0  0  0  0  0
    0.0035   -2.0143   -0.3925 C   0  0  0  0  0  0  0  0  0  0  0  0
   -0.0862   -0.5746    0.1716 C   0  0  2  0  0  0  0  0  0  0  0  0
   -1.2715   -0.3936    1.0138 N   0  0  0  0  0  0  0  0  0  0  0  0
   -0.0687    0.4349   -0.9967 C   0  0  0  0  0  0  0  0  0  0  0  0
   -0.0840    1.9112   -0.5727 C   0  0  0  0  0  0  0  0  0  0  0  0
   -1.4617    2.5312   -0.5609 C   0  0  0  0  0  0  0  0  0  0  0  0
   -2.0991    2.8682   -1.7637 C   0  0  0  0  0  0  0  0  0  0  0  0
   -3.3714    3.4425   -1.7558 C   0  0  0  0  0  0  0  0  0  0  0  0
   -4.0198    3.6853   -0.5466 C   0  0  0  0  0  0  0  0  0  0  0  0
   -3.3965    3.3536    0.6547 C   0  0  0  0  0  0  0  0  0  0  0  0
   -2.1237    2.7804    0.6476 C   0  0  0  0  0  0  0  0  0  0  0  0
    2.6607   -2.3780    0.0988 H   0  0  0  0  0  0  0  0  0  0  0  0
    3.2114   -2.9848    1.6540 H   0  0  0  0  0  0  0  0  0  0  0  0
    3.1245   -4.0776    0.2569 H   0  0  0  0  0  0  0  0  0  0  0  0
    1.6523   -5.6341    1.8254 H   0  0  0  0  0  0  0  0  0  0  0  0
    0.1313   -4.9902    2.4560 H   0  0  0  0  0  0  0  0  0  0  0  0
    1.6661   -4.4102    3.1150 H   0  0  0  0  0  0  0  0  0  0  0  0
   -0.8546   -3.4398    1.0373 H   0  0  0  0  0  0  0  0  0  0  0  0
    0.8497   -2.0886   -1.0855 H   0  0  0  0  0  0  0  0  0  0  0  0
   -0.8845   -2.2299   -1.0022 H   0  0  0  0  0  0  0  0  0  0  0  0
    0.7957   -0.3893    0.7977 H   0  0  0  0  0  0  0  0  0  0  0  0
   -2.1163   -0.4792    0.4493 H   0  0  0  0  0  0  0  0  0  0  0  0
   -1.3113   -1.1308    1.7156 H   0  0  0  0  0  0  0  0  0  0  0  0
    0.8636    0.2680   -1.5536 H   0  0  0  0  0  0  0  0  0  0  0  0
   -0.8855    0.2187   -1.6973 H   0  0  0  0  0  0  0  0  0  0  0  0
    0.5219    2.4870   -1.2855 H   0  0  0  0  0  0  0  0  0  0  0  0
    0.4088    2.0443    0.3983 H   0  0  0  0  0  0  0  0  0  0  0  0
   -1.6041    2.6863   -2.7147 H   0  0  0  0  0  0  0  0  0  0  0  0
   -3.8557    3.7013   -2.6935 H   0  0  0  0  0  0  0  0  0  0  0  0
   -5.0102    4.1320   -0.5398 H   0  0  0  0  0  0  0  0  0  0  0  0
   -3.9006    3.5378    1.5994 H   0  0  0  0  0  0  0  0  0  0  0  0
   -1.6529    2.5153    1.5921 H   0  0  0  0  0  0  0  0  0  0  0  0
  1  2  1  0
  2  3  1  0
  2  4  2  3
  4  5  1  0
  5  6  1  0
  6  7  1  0
  6  8  1  0
  8  9  1  0
  9 10  1  0
 10 11  2  0
 11 12  1  0
 12 13  2  0
 13 14  1  0
 14 15  2  0
 15 10  1  0
  1 16  1  0
  1 17  1  0
  1 18  1  0
  3 19  1  0
  3 20  1  0
  3 21  1  0
  4 22  1  0
  5 23  1  0
  5 24  1  0
  6 25  1  1
  7 26  1  0
  7 27  1  0
  8 28  1  0
  8 29  1  0
  9 30  1  0
  9 31  1  0
 11 32  1  0
 12 33  1  0
 13 34  1  0
 14 35  1  0
 15 36  1  0
M  END
