
     RDKit          3D

 34 34  0  0  0  0  0  0  0  0999 V2000
   -2.5577    1.2157   -3.8916 C   0  0  0  0  0  0  0  0  0  0  0  0
   -2.4925    0.0348   -2.9584 C   0  0  0  0  0  0  0  0  0  0  0  0
   -3.6869   -0.8767   -3.0309 C   0  0  0  0  0  0  0  0  0  0  0  0
   -1.4346   -0.1380   -2.1417 C   0  0  0  0  0  0  0  0  0  0  0  0
   -1.1832   -1.2734   -1.1736 C   0  0  0  0  0  0  0  0  0  0  0  0
   -1.4067   -0.9402    0.3240 C   0  0  2  0  0  0  0  0  0  0  0  0
   -2.8059   -0.6089    0.6003 N   0  0  0  0  0  0  0  0  0  0  0  0
   -0.5258    0.1815    0.8102 C   0  0  0  0  0  0  0  0  0  0  0  0
    0.4419    0.0257    1.7292 C   0  0  0  0  0  0  0  0  0  0  0  0
    1.3164    1.1089    2.1994 C   0  0  0  0  0  0  0  0  0  0  0  0
    2.6503    0.8148    2.5109 C   0  0  0  0  0  0  0  0  0  0  0  0
    3.5071    1.8106    2.9870 C   0  0  0  0  0  0  0  0  0  0  0  0
    3.0353    3.1088    3.1676 C   0  0  0  0  0  0  0  0  0  0  0  0
    1.7067    3.4107    2.8771 C   0  0  0  0  0  0  0  0  0  0  0  0
    0.8500    2.4148    2.4002 C   0  0  0  0  0  0  0  0  0  0  0  0
   -1.6719    1.8551   -3.8161 H   0  0  0  0  0  0  0  0  0  0  0  0
   -3.4330    1.8323   -3.6625 H   0  0  0  0  0  0  0  0  0  0  0  0
   -2.6335    0.8744   -4.9292 H   0  0  0  0  0  0  0  0  0  0  0  0
   -4.6063   -0.3034   -2.8700 H   0  0  0  0  0  0  0  0  0  0  0  0
   -3.7421   -1.3459   -4.0186 H   0  0  0  0  0  0  0  0  0  0  0  0
   -3.6741   -1.6726   -2.2833 H   0  0  0  0  0  0  0  0  0  0  0  0
   -0.6300    0.5969   -2.1755 H   0  0  0  0  0  0  0  0  0  0  0  0
   -1.7824   -2.1519   -1.4380 H   0  0  0  0  0  0  0  0  0  0  0  0
   -0.1406   -1.5920   -1.3111 H   0  0  0  0  0  0  0  0  0  0  0  0
   -1.1788   -1.8511    0.8919 H   0  0  0  0  0  0  0  0  0  0  0  0
   -3.0956    0.1496   -0.0157 H   0  0  0  0  0  0  0  0  0  0  0  0
   -2.8867   -0.2647    1.5550 H   0  0  0  0  0  0  0  0  0  0  0  0
   -0.6932    1.1575    0.3605 H   0  0  0  0  0  0  0  0  0  0  0  0
    0.6320   -0.9549    2.1604 H   0  0  0  0  0  0  0  0  0  0  0  0
    3.0379   -0.1926    2.3769 H   0  0  0  0  0  0  0  0  0  0  0  0
    4.5418    1.5709    3.2176 H   0  0  0  0  0  0  0  0  0  0  0  0
    3.7010    3.8834    3.5392 H   0  0  0  0  0  0  0  0  0  0  0  0
    1.3335    4.4205    3.0264 H   0  0  0  0  0  0  0  0  0  0  0  0
   -0.1873    2.6696    2.1989 H   0  0  0  0  0  0  0  0  0  0  0  0
  1  2  1  0
  2  3  1  0
  2  4  2  3
  4  5  1  0
  5  6  1  0
  6  7  1  0
  6  8  1  0
  8  9  2  0
  9 10  1  0
 10 11  2  0
 11 12  1  0
 12 13  2  0
 13 14  1  0
 14 15  2  0
 15 10  1  0
  1 16  1  0
  1 17  1  0
  1 18  1  0
  3 19  1  0
  3 20  1  0
  3 21  1  0
  4 22  1  0
  5 23  1  0
  5 24  1  0
  6 25  1  1
  7 26  1  0
  7 27  1  0
  8 28  1  0
  9 29  1  0
 11 30  1  0
 12 31  1  0
 13 32  1  0
 14 33  1  0
 15 34  1  0
M  END
