
     RDKit          3D

 46 45  0  0  0  0  0  0  0  0999 V2000
    0.7639   -3.9138    0.5556 N   0  0  0  0  0  0  0  0  0  0  0  0
    0.0209   -2.9159   -0.2432 C   0  0  1  0  0  0  0  0  0  0  0  0
   -0.6731   -3.7046   -1.3752 C   0  0  0  0  0  0  0  0  0  0  0  0
   -1.3604   -2.8857   -2.4712 C   0  0  0  0  0  0  0  0  0  0  0  0
   -0.3953   -2.0159   -3.2748 C   0  0  0  0  0  0  0  0  0  0  0  0
   -1.1016   -1.2467   -4.3712 C   0  0  0  0  0  0  0  0  0  0  0  0
   -0.2686   -0.4939   -5.1478 N   0  0  0  0  0  0  0  0  0  0  0  0
   -2.3091   -1.2570   -4.5722 O   0  0  0  0  0  0  0  0  0  0  0  0
   -0.9537   -2.1399    0.6745 C   0  0  0  0  0  0  0  0  0  0  0  0
   -1.4483   -0.4817    0.0783 S   0  0  0  0  0  0  0  0  0  0  0  0
    0.2947    0.6030    0.2013 S   0  0  0  0  0  0  0  0  0  0  0  0
    0.2972    1.1283    1.9573 C   0  0  0  0  0  0  0  0  0  0  0  0
    1.4163    2.1305    2.3090 C   0  0  1  0  0  0  0  0  0  0  0  0
    2.7304    1.4660    2.2015 N   0  0  0  0  0  0  0  0  0  0  0  0
    1.4499    3.4411    1.4922 C   0  0  0  0  0  0  0  0  0  0  0  0
    0.2375    4.3716    1.6639 C   0  0  0  0  0  0  0  0  0  0  0  0
   -0.8862    4.1592    0.6437 C   0  0  0  0  0  0  0  0  0  0  0  0
   -2.1310    3.5174    1.2206 C   0  0  0  0  0  0  0  0  0  0  0  0
   -2.9900    3.0136    0.2875 N   0  0  0  0  0  0  0  0  0  0  0  0
   -2.4009    3.4698    2.4143 O   0  0  0  0  0  0  0  0  0  0  0  0
    0.1138   -4.5505    1.0161 H   0  0  0  0  0  0  0  0  0  0  0  0
    1.2809   -3.4435    1.2991 H   0  0  0  0  0  0  0  0  0  0  0  0
    0.7764   -2.2479   -0.6666 H   0  0  0  0  0  0  0  0  0  0  0  0
    0.0670   -4.3540   -1.8641 H   0  0  0  0  0  0  0  0  0  0  0  0
   -1.4218   -4.3798   -0.9386 H   0  0  0  0  0  0  0  0  0  0  0  0
   -2.1716   -2.2830   -2.0519 H   0  0  0  0  0  0  0  0  0  0  0  0
   -1.8499   -3.5885   -3.1589 H   0  0  0  0  0  0  0  0  0  0  0  0
    0.3733   -2.6461   -3.7375 H   0  0  0  0  0  0  0  0  0  0  0  0
    0.1050   -1.2873   -2.6302 H   0  0  0  0  0  0  0  0  0  0  0  0
    0.7361   -0.5942   -5.1177 H   0  0  0  0  0  0  0  0  0  0  0  0
   -0.6830   -0.0141   -5.9362 H   0  0  0  0  0  0  0  0  0  0  0  0
   -1.8688   -2.7236    0.8272 H   0  0  0  0  0  0  0  0  0  0  0  0
   -0.5163   -1.9942    1.6694 H   0  0  0  0  0  0  0  0  0  0  0  0
   -0.6721    1.5609    2.2061 H   0  0  0  0  0  0  0  0  0  0  0  0
    0.4114    0.2302    2.5761 H   0  0  0  0  0  0  0  0  0  0  0  0
    1.2897    2.3965    3.3660 H   0  0  0  0  0  0  0  0  0  0  0  0
    2.8862    1.1910    1.2304 H   0  0  0  0  0  0  0  0  0  0  0  0
    3.4712    2.1285    2.4297 H   0  0  0  0  0  0  0  0  0  0  0  0
    1.6373    3.2477    0.4293 H   0  0  0  0  0  0  0  0  0  0  0  0
    2.3236    4.0135    1.8375 H   0  0  0  0  0  0  0  0  0  0  0  0
   -0.1190    4.3415    2.6989 H   0  0  0  0  0  0  0  0  0  0  0  0
    0.6096    5.3935    1.5068 H   0  0  0  0  0  0  0  0  0  0  0  0
   -1.2074    5.1406    0.2707 H   0  0  0  0  0  0  0  0  0  0  0  0
   -0.5381    3.5898   -0.2236 H   0  0  0  0  0  0  0  0  0  0  0  0
   -3.7738    2.4871    0.6537 H   0  0  0  0  0  0  0  0  0  0  0  0
   -2.6514    2.7310   -0.6235 H   0  0  0  0  0  0  0  0  0  0  0  0
  1  2  1  0
  2  3  1  0
  3  4  1  0
  4  5  1  0
  5  6  1  0
  6  7  1  0
  6  8  2  0
  2  9  1  0
  9 10  1  0
 10 11  1  0
 11 12  1  0
 12 13  1  0
 13 14  1  0
 13 15  1  0
 15 16  1  0
 16 17  1  0
 17 18  1  0
 18 19  1  0
 18 20  2  0
  1 21  1  0
  1 22  1  0
  2 23  1  6
  3 24  1  0
  3 25  1  0
  4 26  1  0
  4 27  1  0
  5 28  1  0
  5 29  1  0
  7 30  1  0
  7 31  1  0
  9 32  1  0
  9 33  1  0
 12 34  1  0
 12 35  1  0
 13 36  1  1
 14 37  1  0
 14 38  1  0
 15 39  1  0
 15 40  1  0
 16 41  1  0
 16 42  1  0
 17 43  1  0
 17 44  1  0
 19 45  1  0
 19 46  1  0
M  END
