
     RDKit          3D

 48 47  0  0  0  0  0  0  0  0999 V2000
    1.4850   -3.3465   -0.0560 N   0  0  0  0  0  0  0  0  0  0  0  0
    0.1493   -3.1453    0.4925 C   0  0  0  0  0  0  0  0  0  0  0  0
    0.1780   -2.4006    1.8281 C   0  0  0  0  0  0  0  0  0  0  0  0
    0.7933   -1.0006    1.7275 C   0  0  0  0  0  0  0  0  0  0  0  0
    0.6424   -0.2375    3.0481 C   0  0  0  0  0  0  0  0  0  0  0  0
    1.3555    1.1278    3.0521 C   0  0  2  0  0  0  0  0  0  0  0  0
    1.2862    1.6786    4.4200 N   0  0  0  0  0  0  0  0  0  0  0  0
    0.8505    2.1412    1.9971 C   0  0  0  0  0  0  0  0  0  0  0  0
   -0.8688    2.7258    2.2654 S   0  0  0  0  0  0  0  0  0  0  0  0
   -1.9607    1.6729    0.8776 S   0  0  0  0  0  0  0  0  0  0  0  0
   -2.0303    2.7908   -0.5742 C   0  0  0  0  0  0  0  0  0  0  0  0
   -0.7925    2.8832   -1.4995 C   0  0  1  0  0  0  0  0  0  0  0  0
    0.2921    3.6779   -0.9028 N   0  0  0  0  0  0  0  0  0  0  0  0
   -0.2128    1.5356   -1.9739 C   0  0  0  0  0  0  0  0  0  0  0  0
   -1.2180    0.6754   -2.7476 C   0  0  0  0  0  0  0  0  0  0  0  0
   -0.6451   -0.6790   -3.1857 C   0  0  0  0  0  0  0  0  0  0  0  0
    0.5585   -0.6255   -4.1301 C   0  0  0  0  0  0  0  0  0  0  0  0
    0.2627    0.0449   -5.3910 N   0  0  0  0  0  0  0  0  0  0  0  0
    2.0551   -3.8601    0.6154 H   0  0  0  0  0  0  0  0  0  0  0  0
    1.4245   -3.9342   -0.8863 H   0  0  0  0  0  0  0  0  0  0  0  0
   -0.3290   -4.1205    0.6362 H   0  0  0  0  0  0  0  0  0  0  0  0
   -0.4565   -2.5890   -0.2302 H   0  0  0  0  0  0  0  0  0  0  0  0
    0.7302   -2.9913    2.5699 H   0  0  0  0  0  0  0  0  0  0  0  0
   -0.8527   -2.3181    2.1952 H   0  0  0  0  0  0  0  0  0  0  0  0
    1.8568   -1.0785    1.4733 H   0  0  0  0  0  0  0  0  0  0  0  0
    0.3055   -0.4545    0.9154 H   0  0  0  0  0  0  0  0  0  0  0  0
   -0.4222   -0.1200    3.2847 H   0  0  0  0  0  0  0  0  0  0  0  0
    1.0660   -0.8568    3.8509 H   0  0  0  0  0  0  0  0  0  0  0  0
    2.4174    0.9471    2.8422 H   0  0  0  0  0  0  0  0  0  0  0  0
    0.3060    1.8755    4.6351 H   0  0  0  0  0  0  0  0  0  0  0  0
    1.7508    2.5860    4.4419 H   0  0  0  0  0  0  0  0  0  0  0  0
    0.9738    1.7380    0.9894 H   0  0  0  0  0  0  0  0  0  0  0  0
    1.4838    3.0352    2.0456 H   0  0  0  0  0  0  0  0  0  0  0  0
   -2.3224    3.7901   -0.2289 H   0  0  0  0  0  0  0  0  0  0  0  0
   -2.8771    2.4385   -1.1747 H   0  0  0  0  0  0  0  0  0  0  0  0
   -1.1161    3.4353   -2.3920 H   0  0  0  0  0  0  0  0  0  0  0  0
    1.0156    3.8540   -1.5995 H   0  0  0  0  0  0  0  0  0  0  0  0
   -0.0620    4.5897   -0.6146 H   0  0  0  0  0  0  0  0  0  0  0  0
    0.1800    0.9629   -1.1265 H   0  0  0  0  0  0  0  0  0  0  0  0
    0.6449    1.7436   -2.6259 H   0  0  0  0  0  0  0  0  0  0  0  0
   -2.0913    0.4697   -2.1189 H   0  0  0  0  0  0  0  0  0  0  0  0
   -1.5874    1.2292   -3.6182 H   0  0  0  0  0  0  0  0  0  0  0  0
   -1.4486   -1.2540   -3.6639 H   0  0  0  0  0  0  0  0  0  0  0  0
   -0.3555   -1.2445   -2.2919 H   0  0  0  0  0  0  0  0  0  0  0  0
    0.8765   -1.6502   -4.3530 H   0  0  0  0  0  0  0  0  0  0  0  0
    1.4110   -0.1359   -3.6491 H   0  0  0  0  0  0  0  0  0  0  0  0
    0.0213    1.0187   -5.2193 H   0  0  0  0  0  0  0  0  0  0  0  0
   -0.5573   -0.3814   -5.8207 H   0  0  0  0  0  0  0  0  0  0  0  0
  1  2  1  0
  2  3  1  0
  3  4  1  0
  4  5  1  0
  5  6  1  0
  6  7  1  0
  6  8  1  0
  8  9  1  0
  9 10  1  0
 10 11  1  0
 11 12  1  0
 12 13  1  0
 12 14  1  0
 14 15  1  0
 15 16  1  0
 16 17  1  0
 17 18  1  0
  1 19  1  0
  1 20  1  0
  2 21  1  0
  2 22  1  0
  3 23  1  0
  3 24  1  0
  4 25  1  0
  4 26  1  0
  5 27  1  0
  5 28  1  0
  6 29  1  6
  7 30  1  0
  7 31  1  0
  8 32  1  0
  8 33  1  0
 11 34  1  0
 11 35  1  0
 12 36  1  6
 13 37  1  0
 13 38  1  0
 14 39  1  0
 14 40  1  0
 15 41  1  0
 15 42  1  0
 16 43  1  0
 16 44  1  0
 17 45  1  0
 17 46  1  0
 18 47  1  0
 18 48  1  0
M  END
