
     RDKit          3D

 25 25  0  0  0  0  0  0  0  0999 V2000
    0.1439   -3.2264    0.2503 C   0  0  0  0  0  0  0  0  0  0  0  0
    0.2200   -1.7465   -0.1244 C   0  0  1  0  0  0  0  0  0  0  0  0
   -0.2484   -1.5981   -1.5051 N   0  0  0  0  0  0  0  0  0  0  0  0
   -0.6167   -0.9005    0.8628 C   0  0  0  0  0  0  0  0  0  0  0  0
   -0.3335    0.5895    0.7852 C   0  0  0  0  0  0  0  0  0  0  0  0
   -1.1628    1.4690    0.0668 C   0  0  0  0  0  0  0  0  0  0  0  0
   -2.5698    0.9317   -0.7854 Cl  0  0  0  0  0  0  0  0  0  0  0  0
   -0.8797    2.8408   -0.0019 C   0  0  0  0  0  0  0  0  0  0  0  0
    0.2095    3.3846    0.6744 C   0  0  0  0  0  0  0  0  0  0  0  0
    0.5518    4.7289    0.5003 N   0  0  0  0  0  0  0  0  0  0  0  0
    1.0721    2.5176    1.3395 C   0  0  0  0  0  0  0  0  0  0  0  0
    0.7974    1.1453    1.4135 C   0  0  0  0  0  0  0  0  0  0  0  0
    1.9200    0.1775    2.3110 Cl  0  0  0  0  0  0  0  0  0  0  0  0
   -0.8872   -3.5966    0.2192 H   0  0  0  0  0  0  0  0  0  0  0  0
    0.7443   -3.8381   -0.4325 H   0  0  0  0  0  0  0  0  0  0  0  0
    0.5300   -3.3888    1.2624 H   0  0  0  0  0  0  0  0  0  0  0  0
    1.2711   -1.4392   -0.0896 H   0  0  0  0  0  0  0  0  0  0  0  0
   -0.2069   -0.6185   -1.7848 H   0  0  0  0  0  0  0  0  0  0  0  0
    0.3715   -2.1038   -2.1364 H   0  0  0  0  0  0  0  0  0  0  0  0
   -0.4262   -1.2335    1.8918 H   0  0  0  0  0  0  0  0  0  0  0  0
   -1.6850   -1.1073    0.7256 H   0  0  0  0  0  0  0  0  0  0  0  0
   -1.5237    3.4897   -0.5912 H   0  0  0  0  0  0  0  0  0  0  0  0
    1.1436    5.1118    1.2320 H   0  0  0  0  0  0  0  0  0  0  0  0
   -0.2317    5.3385    0.2841 H   0  0  0  0  0  0  0  0  0  0  0  0
    1.9702    2.9098    1.8109 H   0  0  0  0  0  0  0  0  0  0  0  0
  1  2  1  0
  2  3  1  0
  2  4  1  0
  4  5  1  0
  5  6  2  0
  6  7  1  0
  6  8  1  0
  8  9  2  0
  9 10  1  0
  9 11  1  0
 11 12  2  0
 12 13  1  0
 12  5  1  0
  1 14  1  0
  1 15  1  0
  1 16  1  0
  2 17  1  6
  3 18  1  0
  3 19  1  0
  4 20  1  0
  4 21  1  0
  8 22  1  0
 10 23  1  0
 10 24  1  0
 11 25  1  0
M  END
