
     RDKit          3D

 25 25  0  0  0  0  0  0  0  0999 V2000
    1.5527   -0.6549   -2.1706 C   0  0  0  0  0  0  0  0  0  0  0  0
    0.0334   -0.5706   -2.3237 C   0  0  1  0  0  0  0  0  0  0  0  0
   -0.3655   -1.4118   -3.4613 N   0  0  0  0  0  0  0  0  0  0  0  0
   -0.7086   -1.0345   -1.0529 C   0  0  0  0  0  0  0  0  0  0  0  0
   -0.5061   -0.1286    0.1363 C   0  0  0  0  0  0  0  0  0  0  0  0
    0.2964   -0.5207    1.2129 C   0  0  0  0  0  0  0  0  0  0  0  0
    0.4809    0.3354    2.3046 C   0  0  0  0  0  0  0  0  0  0  0  0
   -0.1632    1.5749    2.3642 C   0  0  0  0  0  0  0  0  0  0  0  0
    0.1240    2.4685    3.4023 N   0  0  0  0  0  0  0  0  0  0  0  0
   -0.9160    1.9885    1.2657 C   0  0  0  0  0  0  0  0  0  0  0  0
   -1.0982    1.1354    0.1793 C   0  0  0  0  0  0  0  0  0  0  0  0
   -1.8520    1.5524   -0.8488 F   0  0  0  0  0  0  0  0  0  0  0  0
    1.8751   -1.6710   -1.9167 H   0  0  0  0  0  0  0  0  0  0  0  0
    1.9091    0.0198   -1.3857 H   0  0  0  0  0  0  0  0  0  0  0  0
    2.0576   -0.3634   -3.0987 H   0  0  0  0  0  0  0  0  0  0  0  0
   -0.2361    0.4656   -2.5594 H   0  0  0  0  0  0  0  0  0  0  0  0
   -1.3648   -1.2957   -3.6302 H   0  0  0  0  0  0  0  0  0  0  0  0
    0.1010   -1.0807   -4.3056 H   0  0  0  0  0  0  0  0  0  0  0  0
   -0.4076   -2.0589   -0.7949 H   0  0  0  0  0  0  0  0  0  0  0  0
   -1.7885   -1.0867   -1.2494 H   0  0  0  0  0  0  0  0  0  0  0  0
    0.7975   -1.4862    1.2048 H   0  0  0  0  0  0  0  0  0  0  0  0
    1.1364    0.0217    3.1135 H   0  0  0  0  0  0  0  0  0  0  0  0
   -0.5851    3.1817    3.5428 H   0  0  0  0  0  0  0  0  0  0  0  0
    0.3947    2.0188    4.2715 H   0  0  0  0  0  0  0  0  0  0  0  0
   -1.3709    2.9729    1.2385 H   0  0  0  0  0  0  0  0  0  0  0  0
  1  2  1  0
  2  3  1  0
  2  4  1  0
  4  5  1  0
  5  6  2  0
  6  7  1  0
  7  8  2  0
  8  9  1  0
  8 10  1  0
 10 11  2  0
 11 12  1  0
 11  5  1  0
  1 13  1  0
  1 14  1  0
  1 15  1  0
  2 16  1  6
  3 17  1  0
  3 18  1  0
  4 19  1  0
  4 20  1  0
  6 21  1  0
  7 22  1  0
  9 23  1  0
  9 24  1  0
 10 25  1  0
M  END
