
     RDKit          3D

 28 28  0  0  0  0  0  0  0  0999 V2000
    3.4028   -1.4950    2.2253 C   0  0  0  0  0  0  0  0  0  0  0  0
    2.5297   -1.3619    0.9764 C   0  0  1  0  0  0  0  0  0  0  0  0
    3.1321   -2.1463   -0.1089 N   0  0  0  0  0  0  0  0  0  0  0  0
    1.0862   -1.8205    1.2780 C   0  0  0  0  0  0  0  0  0  0  0  0
    0.0730   -1.3443    0.2609 C   0  0  0  0  0  0  0  0  0  0  0  0
   -0.6589   -0.1703    0.4828 C   0  0  0  0  0  0  0  0  0  0  0  0
   -1.5912    0.2732   -0.4593 C   0  0  0  0  0  0  0  0  0  0  0  0
   -1.8051   -0.4522   -1.6359 C   0  0  0  0  0  0  0  0  0  0  0  0
   -1.0656   -1.6142   -1.8687 C   0  0  0  0  0  0  0  0  0  0  0  0
   -0.1343   -2.0573   -0.9263 C   0  0  0  0  0  0  0  0  0  0  0  0
   -3.0158    0.1381   -2.8414 S   0  0  0  0  0  4  0  0  0  0  0  0
   -4.4975   -0.3929   -1.9448 C   0  0  0  0  0  0  0  0  0  0  0  0
   -2.8813   -0.7536   -4.0415 O   0  0  0  0  0  0  0  0  0  0  0  0
    3.0091   -0.8769    3.0395 H   0  0  0  0  0  0  0  0  0  0  0  0
    3.4439   -2.5315    2.5787 H   0  0  0  0  0  0  0  0  0  0  0  0
    4.4280   -1.1631    2.0268 H   0  0  0  0  0  0  0  0  0  0  0  0
    2.5224   -0.3082    0.6724 H   0  0  0  0  0  0  0  0  0  0  0  0
    4.0742   -1.8050   -0.2961 H   0  0  0  0  0  0  0  0  0  0  0  0
    3.2334   -3.1190    0.1775 H   0  0  0  0  0  0  0  0  0  0  0  0
    0.7806   -1.4470    2.2648 H   0  0  0  0  0  0  0  0  0  0  0  0
    1.0350   -2.9149    1.3583 H   0  0  0  0  0  0  0  0  0  0  0  0
   -0.5046    0.4096    1.3900 H   0  0  0  0  0  0  0  0  0  0  0  0
   -2.1405    1.1912   -0.2670 H   0  0  0  0  0  0  0  0  0  0  0  0
   -1.2036   -2.1797   -2.7880 H   0  0  0  0  0  0  0  0  0  0  0  0
    0.4418   -2.9572   -1.1320 H   0  0  0  0  0  0  0  0  0  0  0  0
   -5.3695   -0.1975   -2.5737 H   0  0  0  0  0  0  0  0  0  0  0  0
   -4.4421   -1.4626   -1.7281 H   0  0  0  0  0  0  0  0  0  0  0  0
   -4.5917    0.1756   -1.0166 H   0  0  0  0  0  0  0  0  0  0  0  0
  1  2  1  0
  2  3  1  0
  2  4  1  0
  4  5  1  0
  5  6  2  0
  6  7  1  0
  7  8  2  0
  8  9  1  0
  9 10  2  0
  8 11  1  0
 11 12  1  0
 11 13  2  0
 10  5  1  0
  1 14  1  0
  1 15  1  0
  1 16  1  0
  2 17  1  6
  3 18  1  0
  3 19  1  0
  4 20  1  0
  4 21  1  0
  6 22  1  0
  7 23  1  0
  9 24  1  0
 10 25  1  0
 12 26  1  0
 12 27  1  0
 12 28  1  0
M  END
