
     RDKit          3D

 19 18  0  0  0  0  0  0  0  0999 V2000
   -2.5355    0.2253   -0.5118 C   0  0  0  0  0  0  0  0  0  0  0  0
   -1.9392   -0.7831    0.8700 S   0  0  0  0  0  0  0  0  0  0  0  0
   -0.7854   -1.8682   -0.0367 C   0  0  0  0  0  0  0  0  0  0  0  0
    0.6799   -1.5110    0.2159 C   0  0  0  0  0  0  0  0  0  0  0  0
    1.1366   -0.1727   -0.3718 C   0  0  2  0  0  0  0  0  0  0  0  0
    1.0313   -0.1702   -1.8436 N   0  0  0  0  0  0  0  0  0  0  0  0
    2.5846    0.0865    0.0430 C   0  0  0  0  0  0  0  0  0  0  0  0
    3.5058    0.2701   -0.7501 O   0  0  0  0  0  0  0  0  0  0  0  0
   -3.0168   -0.4057   -1.2635 H   0  0  0  0  0  0  0  0  0  0  0  0
   -3.2736    0.9400   -0.1380 H   0  0  0  0  0  0  0  0  0  0  0  0
   -1.7165    0.7847   -0.9684 H   0  0  0  0  0  0  0  0  0  0  0  0
   -0.9605   -2.8843    0.3339 H   0  0  0  0  0  0  0  0  0  0  0  0
   -1.0217   -1.8809   -1.1053 H   0  0  0  0  0  0  0  0  0  0  0  0
    1.3023   -2.3150   -0.2020 H   0  0  0  0  0  0  0  0  0  0  0  0
    0.8796   -1.5281    1.2961 H   0  0  0  0  0  0  0  0  0  0  0  0
    0.5468    0.6570    0.0297 H   0  0  0  0  0  0  0  0  0  0  0  0
    1.4055    0.7223   -2.1796 H   0  0  0  0  0  0  0  0  0  0  0  0
    1.7048   -0.8490   -2.2106 H   0  0  0  0  0  0  0  0  0  0  0  0
    2.7626    0.1282    1.1318 H   0  0  0  0  0  0  0  0  0  0  0  0
  1  2  1  0
  2  3  1  0
  3  4  1  0
  4  5  1  0
  5  6  1  0
  5  7  1  0
  7  8  2  0
  1  9  1  0
  1 10  1  0
  1 11  1  0
  3 12  1  0
  3 13  1  0
  4 14  1  0
  4 15  1  0
  5 16  1  1
  6 17  1  0
  6 18  1  0
  7 19  1  0
M  END
