
     RDKit          3D

 37 37  0  0  0  0  0  0  0  0999 V2000
    1.7885    3.2393   -2.9638 C   0  0  0  0  0  0  0  0  0  0  0  0
    1.1176    2.0389   -2.2844 C   0  0  0  0  0  0  0  0  0  0  0  0
    1.9321    0.7814   -2.5857 C   0  0  0  0  0  0  0  0  0  0  0  0
    0.9640    2.3249   -0.7743 C   0  0  0  0  0  0  0  0  0  0  0  0
   -0.0073    1.3965   -0.0252 C   0  0  2  0  0  0  0  0  0  0  0  0
   -0.3962    2.0212    1.2591 N   0  0  0  0  0  0  0  0  0  0  0  0
    0.5583   -0.0099    0.2481 C   0  0  0  0  0  0  0  0  0  0  0  0
    0.0795   -0.9945   -0.3212 O   0  0  0  0  0  0  0  0  0  0  0  0
    1.7861   -0.1279    1.1432 C   0  0  0  0  0  0  0  0  0  0  0  0
    1.9952   -1.5194    1.7479 C   0  0  0  0  0  0  0  0  0  0  0  0
    1.2447   -1.7472    3.0659 C   0  0  0  0  0  0  0  0  0  0  0  0
   -0.2341   -1.9265    2.9059 C   0  0  0  0  0  0  0  0  0  0  0  0
   -1.2350   -0.9917    3.0820 C   0  0  0  0  0  0  0  0  0  0  0  0
   -2.5311   -1.5318    2.8418 C   0  0  0  0  0  0  0  0  0  0  0  0
   -2.4788   -2.8650    2.5044 C   0  0  0  0  0  0  0  0  0  0  0  0
   -0.8765   -3.4593    2.4835 S   0  0  0  0  0  0  0  0  0  0  0  0
    2.7924    3.4131   -2.5612 H   0  0  0  0  0  0  0  0  0  0  0  0
    1.8787    3.0771   -4.0433 H   0  0  0  0  0  0  0  0  0  0  0  0
    1.2002    4.1511   -2.8160 H   0  0  0  0  0  0  0  0  0  0  0  0
    0.1210    1.9224   -2.7281 H   0  0  0  0  0  0  0  0  0  0  0  0
    1.3938   -0.1241   -2.3010 H   0  0  0  0  0  0  0  0  0  0  0  0
    2.1368    0.6985   -3.6590 H   0  0  0  0  0  0  0  0  0  0  0  0
    2.8934    0.7931   -2.0617 H   0  0  0  0  0  0  0  0  0  0  0  0
    0.5874    3.3530   -0.6752 H   0  0  0  0  0  0  0  0  0  0  0  0
    1.9520    2.3183   -0.2965 H   0  0  0  0  0  0  0  0  0  0  0  0
   -0.9251    1.2670   -0.6111 H   0  0  0  0  0  0  0  0  0  0  0  0
    0.4177    2.4460    1.7021 H   0  0  0  0  0  0  0  0  0  0  0  0
   -1.0321    2.7951    1.0625 H   0  0  0  0  0  0  0  0  0  0  0  0
    2.6481    0.1099    0.5089 H   0  0  0  0  0  0  0  0  0  0  0  0
    1.7501    0.6204    1.9397 H   0  0  0  0  0  0  0  0  0  0  0  0
    3.0659   -1.6172    1.9708 H   0  0  0  0  0  0  0  0  0  0  0  0
    1.7590   -2.3074    1.0237 H   0  0  0  0  0  0  0  0  0  0  0  0
    1.4403   -0.9133    3.7520 H   0  0  0  0  0  0  0  0  0  0  0  0
    1.6622   -2.6371    3.5554 H   0  0  0  0  0  0  0  0  0  0  0  0
   -1.0489    0.0400    3.3546 H   0  0  0  0  0  0  0  0  0  0  0  0
   -3.4533   -0.9687    2.9075 H   0  0  0  0  0  0  0  0  0  0  0  0
   -3.3038   -3.5215    2.2662 H   0  0  0  0  0  0  0  0  0  0  0  0
  1  2  1  0
  2  3  1  0
  2  4  1  0
  4  5  1  0
  5  6  1  0
  5  7  1  0
  7  8  2  0
  7  9  1  0
  9 10  1  0
 10 11  1  0
 11 12  1  0
 12 13  2  0
 13 14  1  0
 14 15  2  0
 15 16  1  0
 16 12  1  0
  1 17  1  0
  1 18  1  0
  1 19  1  0
  2 20  1  0
  3 21  1  0
  3 22  1  0
  3 23  1  0
  4 24  1  0
  4 25  1  0
  5 26  1  6
  6 27  1  0
  6 28  1  0
  9 29  1  0
  9 30  1  0
 10 31  1  0
 10 32  1  0
 11 33  1  0
 11 34  1  0
 13 35  1  0
 14 36  1  0
 15 37  1  0
M  END
