
     RDKit          3D

 27 26  0  0  0  0  0  0  0  0999 V2000
    1.3162    2.5681    0.5262 C   0  0  0  0  0  0  0  0  0  0  0  0
    0.1103    1.6279    0.4300 C   0  0  0  0  0  0  0  0  0  0  0  0
   -1.1604    2.4215    0.7529 C   0  0  0  0  0  0  0  0  0  0  0  0
    0.2409    0.4214    1.3899 C   0  0  0  0  0  0  0  0  0  0  0  0
    0.8312   -0.8709    0.7824 C   0  0  2  0  0  0  0  0  0  0  0  0
    2.1577   -0.6694    0.2016 N   0  0  0  0  0  0  0  0  0  0  0  0
   -0.1095   -1.5338   -0.2416 C   0  0  0  0  0  0  0  0  0  0  0  0
   -1.2625   -1.1111   -0.3986 O   0  0  0  0  0  0  0  0  0  0  0  0
    0.3940   -2.7435   -1.0165 C   0  0  0  0  0  0  0  0  0  0  0  0
   -0.5875   -3.2147   -1.8572 F   0  0  0  0  0  0  0  0  0  0  0  0
    1.4344   -2.4377   -1.8501 F   0  0  0  0  0  0  0  0  0  0  0  0
    0.7749   -3.8528   -0.0482 C   0  0  0  0  0  0  0  0  0  0  0  0
   -0.2478   -4.1550    0.7922 F   0  0  0  0  0  0  0  0  0  0  0  0
    1.0945   -4.9993   -0.7010 F   0  0  0  0  0  0  0  0  0  0  0  0
    1.8368   -3.5508    0.7339 F   0  0  0  0  0  0  0  0  0  0  0  0
    1.4202    2.9770    1.5373 H   0  0  0  0  0  0  0  0  0  0  0  0
    2.2509    2.0627    0.2722 H   0  0  0  0  0  0  0  0  0  0  0  0
    1.2029    3.4110   -0.1643 H   0  0  0  0  0  0  0  0  0  0  0  0
    0.0257    1.2786   -0.6056 H   0  0  0  0  0  0  0  0  0  0  0  0
   -1.2668    3.2788    0.0796 H   0  0  0  0  0  0  0  0  0  0  0  0
   -1.1443    2.7973    1.7818 H   0  0  0  0  0  0  0  0  0  0  0  0
   -2.0506    1.7947    0.6334 H   0  0  0  0  0  0  0  0  0  0  0  0
   -0.7492    0.1693    1.7936 H   0  0  0  0  0  0  0  0  0  0  0  0
    0.8454    0.7117    2.2598 H   0  0  0  0  0  0  0  0  0  0  0  0
    0.9250   -1.5832    1.6103 H   0  0  0  0  0  0  0  0  0  0  0  0
    2.1196    0.0131   -0.5587 H   0  0  0  0  0  0  0  0  0  0  0  0
    2.7800   -0.2589    0.9010 H   0  0  0  0  0  0  0  0  0  0  0  0
  1  2  1  0
  2  3  1  0
  2  4  1  0
  4  5  1  0
  5  6  1  0
  5  7  1  0
  7  8  2  0
  7  9  1  0
  9 10  1  0
  9 11  1  0
  9 12  1  0
 12 13  1  0
 12 14  1  0
 12 15  1  0
  1 16  1  0
  1 17  1  0
  1 18  1  0
  2 19  1  0
  3 20  1  0
  3 21  1  0
  3 22  1  0
  4 23  1  0
  4 24  1  0
  5 25  1  1
  6 26  1  0
  6 27  1  0
M  END
