
     RDKit          3D

 37 37  0  0  0  0  0  0  0  0999 V2000
    1.0126    1.0548    3.9639 C   0  0  0  0  0  0  0  0  0  0  0  0
    1.3481    2.2180    3.0433 C   0  0  0  0  0  0  0  0  0  0  0  0
    0.1203    2.9856    2.5508 C   0  0  0  0  0  0  0  0  0  0  0  0
   -0.8872    2.2035    1.6951 C   0  0  0  0  0  0  0  0  0  0  0  0
   -0.4559    1.9878    0.2358 C   0  0  2  0  0  0  0  0  0  0  0  0
   -1.6304    1.5728   -0.5477 N   0  0  0  0  0  0  0  0  0  0  0  0
    0.6312    0.9049    0.0891 C   0  0  0  0  0  0  0  0  0  0  0  0
    0.5679   -0.1813    0.6682 O   0  0  0  0  0  0  0  0  0  0  0  0
    1.8271    1.2740   -0.7842 C   0  0  0  0  0  0  0  0  0  0  0  0
    2.5191    0.0654   -1.4209 C   0  0  0  0  0  0  0  0  0  0  0  0
    2.1207   -0.1759   -2.8814 C   0  0  0  0  0  0  0  0  0  0  0  0
    0.6511   -0.3697   -3.1180 C   0  0  0  0  0  0  0  0  0  0  0  0
   -0.0982    0.3633   -4.0210 C   0  0  0  0  0  0  0  0  0  0  0  0
   -1.7421   -0.1044   -4.0582 S   0  0  0  0  0  0  0  0  0  0  0  0
   -1.4798   -1.3081   -2.8760 C   0  0  0  0  0  0  0  0  0  0  0  0
   -0.1658   -1.3508   -2.4659 C   0  0  0  0  0  0  0  0  0  0  0  0
    0.4035    1.3870    4.8105 H   0  0  0  0  0  0  0  0  0  0  0  0
    0.4707    0.2646    3.4376 H   0  0  0  0  0  0  0  0  0  0  0  0
    1.9326    0.6150    4.3623 H   0  0  0  0  0  0  0  0  0  0  0  0
    1.9506    1.8623    2.2043 H   0  0  0  0  0  0  0  0  0  0  0  0
    1.9851    2.9183    3.5980 H   0  0  0  0  0  0  0  0  0  0  0  0
   -0.4124    3.3684    3.4313 H   0  0  0  0  0  0  0  0  0  0  0  0
    0.4560    3.8693    1.9942 H   0  0  0  0  0  0  0  0  0  0  0  0
   -1.1436    1.2520    2.1746 H   0  0  0  0  0  0  0  0  0  0  0  0
   -1.8124    2.7972    1.6939 H   0  0  0  0  0  0  0  0  0  0  0  0
   -0.0778    2.9297   -0.1764 H   0  0  0  0  0  0  0  0  0  0  0  0
   -2.3111    2.3277   -0.5927 H   0  0  0  0  0  0  0  0  0  0  0  0
   -1.3670    1.3474   -1.5074 H   0  0  0  0  0  0  0  0  0  0  0  0
    2.5349    1.7925   -0.1274 H   0  0  0  0  0  0  0  0  0  0  0  0
    1.5141    1.9877   -1.5535 H   0  0  0  0  0  0  0  0  0  0  0  0
    3.6017    0.2463   -1.4089 H   0  0  0  0  0  0  0  0  0  0  0  0
    2.3591   -0.8477   -0.8368 H   0  0  0  0  0  0  0  0  0  0  0  0
    2.6505   -1.0636   -3.2498 H   0  0  0  0  0  0  0  0  0  0  0  0
    2.4802    0.6663   -3.4871 H   0  0  0  0  0  0  0  0  0  0  0  0
    0.2421    1.1580   -4.6712 H   0  0  0  0  0  0  0  0  0  0  0  0
   -2.2986   -1.9242   -2.5302 H   0  0  0  0  0  0  0  0  0  0  0  0
    0.1892   -2.0446   -1.7114 H   0  0  0  0  0  0  0  0  0  0  0  0
  1  2  1  0
  2  3  1  0
  3  4  1  0
  4  5  1  0
  5  6  1  0
  5  7  1  0
  7  8  2  0
  7  9  1  0
  9 10  1  0
 10 11  1  0
 11 12  1  0
 12 13  2  0
 13 14  1  0
 14 15  1  0
 15 16  2  0
 16 12  1  0
  1 17  1  0
  1 18  1  0
  1 19  1  0
  2 20  1  0
  2 21  1  0
  3 22  1  0
  3 23  1  0
  4 24  1  0
  4 25  1  0
  5 26  1  6
  6 27  1  0
  6 28  1  0
  9 29  1  0
  9 30  1  0
 10 31  1  0
 10 32  1  0
 11 33  1  0
 11 34  1  0
 13 35  1  0
 15 36  1  0
 16 37  1  0
M  END
