
     RDKit          3D

 28 29  0  0  0  0  0  0  0  0999 V2000
   -0.3212    1.8795    1.3335 C   0  0  0  0  0  0  0  0  0  0  0  0
   -1.3103    1.1290    0.4455 C   0  0  2  0  0  0  0  0  0  0  0  0
   -1.8268   -0.0317    1.1637 N   0  0  0  0  0  0  0  0  0  0  0  0
   -0.7348    0.7619   -0.9364 C   0  0  0  0  0  0  0  0  0  0  0  0
    0.6515    0.0930   -0.9963 C   0  0  0  0  0  0  0  0  0  0  0  0
    1.1578    0.1397   -2.4372 C   0  0  0  0  0  0  0  0  0  0  0  0
    1.3945   -1.0724   -2.9597 C   0  0  0  0  0  0  0  0  0  0  0  0
    1.1160   -2.0521   -1.9286 C   0  0  0  0  0  0  0  0  0  0  0  0
    1.2503   -3.4280   -1.9807 C   0  0  0  0  0  0  0  0  0  0  0  0
    0.9722   -4.1513   -0.8232 C   0  0  0  0  0  0  0  0  0  0  0  0
    1.1000   -5.4868   -0.8596 F   0  0  0  0  0  0  0  0  0  0  0  0
    0.5831   -3.5074    0.3606 C   0  0  0  0  0  0  0  0  0  0  0  0
    0.2698   -4.4242    1.7859 Cl  0  0  0  0  0  0  0  0  0  0  0  0
    0.4529   -2.1167    0.4017 C   0  0  0  0  0  0  0  0  0  0  0  0
    0.6972   -1.3964   -0.7586 C   0  0  0  0  0  0  0  0  0  0  0  0
    0.1036    2.7377    0.8021 H   0  0  0  0  0  0  0  0  0  0  0  0
    0.5034    1.2388    1.6636 H   0  0  0  0  0  0  0  0  0  0  0  0
   -0.8192    2.2609    2.2323 H   0  0  0  0  0  0  0  0  0  0  0  0
   -2.1637    1.7955    0.2657 H   0  0  0  0  0  0  0  0  0  0  0  0
   -2.5296   -0.5058    0.5958 H   0  0  0  0  0  0  0  0  0  0  0  0
   -2.3056    0.2703    2.0124 H   0  0  0  0  0  0  0  0  0  0  0  0
   -0.6755    1.7069   -1.4970 H   0  0  0  0  0  0  0  0  0  0  0  0
   -1.4706    0.1506   -1.4787 H   0  0  0  0  0  0  0  0  0  0  0  0
    1.3865    0.6009   -0.3634 H   0  0  0  0  0  0  0  0  0  0  0  0
    1.3062    1.0678   -2.9732 H   0  0  0  0  0  0  0  0  0  0  0  0
    1.7543   -1.3005   -3.9500 H   0  0  0  0  0  0  0  0  0  0  0  0
    1.5712   -3.9393   -2.8800 H   0  0  0  0  0  0  0  0  0  0  0  0
    0.1742   -1.6158    1.3226 H   0  0  0  0  0  0  0  0  0  0  0  0
  1  2  1  0
  2  3  1  0
  2  4  1  0
  4  5  1  0
  5  6  1  0
  6  7  2  0
  7  8  1  0
  8  9  2  0
  9 10  1  0
 10 11  1  0
 10 12  2  0
 12 13  1  0
 12 14  1  0
 14 15  2  0
 15  5  1  0
 15  8  1  0
  1 16  1  0
  1 17  1  0
  1 18  1  0
  2 19  1  6
  3 20  1  0
  3 21  1  0
  4 22  1  0
  4 23  1  0
  5 24  1  0
  6 25  1  0
  7 26  1  0
  9 27  1  0
 14 28  1  0
M  END
