
     RDKit          3D

 25 25  0  0  0  0  0  0  0  0999 V2000
   -1.7541   -0.5211   -2.1427 C   0  0  0  0  0  0  0  0  0  0  0  0
   -0.4173    0.0690   -1.6965 C   0  0  2  0  0  0  0  0  0  0  0  0
    0.3821    0.4009   -2.8791 N   0  0  0  0  0  0  0  0  0  0  0  0
    0.3183   -0.9119   -0.8124 C   0  0  0  0  0  0  0  0  0  0  0  0
    0.6679   -2.0965   -1.3731 F   0  0  0  0  0  0  0  0  0  0  0  0
    0.6658   -0.7196    0.4728 C   0  0  0  0  0  0  0  0  0  0  0  0
    0.4651    0.5444    1.2647 C   0  0  0  0  0  0  0  0  0  0  0  0
    1.5302    0.4381    2.3461 C   0  0  0  0  0  0  0  0  0  0  0  0
    1.5638   -1.0467    2.6707 C   0  0  0  0  0  0  0  0  0  0  0  0
    1.4163   -1.7407    1.3106 C   0  0  1  0  0  0  0  0  0  0  0  0
    0.6940   -3.0158    1.4530 C   0  0  0  0  0  0  0  0  0  0  0  0
    0.1312   -4.0220    1.5924 N   0  0  0  0  0  0  0  0  0  0  0  0
   -2.3019    0.1865   -2.7755 H   0  0  0  0  0  0  0  0  0  0  0  0
   -1.6223   -1.4485   -2.7128 H   0  0  0  0  0  0  0  0  0  0  0  0
   -2.3869   -0.7486   -1.2773 H   0  0  0  0  0  0  0  0  0  0  0  0
   -0.6246    1.0017   -1.1632 H   0  0  0  0  0  0  0  0  0  0  0  0
    0.5508   -0.4534   -3.4115 H   0  0  0  0  0  0  0  0  0  0  0  0
    1.2982    0.7333   -2.5829 H   0  0  0  0  0  0  0  0  0  0  0  0
   -0.5352    0.5485    1.7118 H   0  0  0  0  0  0  0  0  0  0  0  0
    0.6035    1.4562    0.6774 H   0  0  0  0  0  0  0  0  0  0  0  0
    2.5039    0.7641    1.9594 H   0  0  0  0  0  0  0  0  0  0  0  0
    1.2919    1.0485    3.2222 H   0  0  0  0  0  0  0  0  0  0  0  0
    2.4930   -1.3321    3.1756 H   0  0  0  0  0  0  0  0  0  0  0  0
    0.7349   -1.2959    3.3468 H   0  0  0  0  0  0  0  0  0  0  0  0
    2.4098   -1.9025    0.8748 H   0  0  0  0  0  0  0  0  0  0  0  0
  1  2  1  0
  2  3  1  0
  2  4  1  0
  4  5  1  0
  4  6  2  0
  6  7  1  0
  7  8  1  0
  8  9  1  0
  9 10  1  0
 10 11  1  0
 11 12  3  0
 10  6  1  0
  1 13  1  0
  1 14  1  0
  1 15  1  0
  2 16  1  1
  3 17  1  0
  3 18  1  0
  7 19  1  0
  7 20  1  0
  8 21  1  0
  8 22  1  0
  9 23  1  0
  9 24  1  0
 10 25  1  6
M  END
