
     RDKit          3D

 24 23  0  0  0  0  0  0  0  0999 V2000
   -2.4379    0.6240   -0.4906 C   0  0  0  0  0  0  0  0  0  0  0  0
   -1.7149   -0.7265   -0.4433 C   0  0  0  0  0  0  0  0  0  0  0  0
   -2.0116   -1.4134    0.8892 C   0  0  0  0  0  0  0  0  0  0  0  0
   -0.2091   -0.5128   -0.7111 C   0  0  0  0  0  0  0  0  0  0  0  0
    0.6178   -1.8003   -0.8614 C   0  0  2  0  0  0  0  0  0  0  0  0
    0.9302   -2.3845    0.4611 N   0  0  0  0  0  0  0  0  0  0  0  0
    1.9325   -1.5179   -1.6104 C   0  0  0  0  0  0  0  0  0  0  0  0
    3.0255   -1.5256   -1.0318 O   0  0  0  0  0  0  0  0  0  0  0  0
    1.8109   -1.1877   -3.0838 C   0  0  0  0  0  0  0  0  0  0  0  0
    1.6876    0.1506   -3.2988 F   0  0  0  0  0  0  0  0  0  0  0  0
    0.7143   -1.7636   -3.6517 F   0  0  0  0  0  0  0  0  0  0  0  0
   -2.2827    1.1150   -1.4569 H   0  0  0  0  0  0  0  0  0  0  0  0
   -2.0762    1.2962    0.2948 H   0  0  0  0  0  0  0  0  0  0  0  0
   -3.5169    0.4939   -0.3559 H   0  0  0  0  0  0  0  0  0  0  0  0
   -2.1258   -1.3495   -1.2478 H   0  0  0  0  0  0  0  0  0  0  0  0
   -1.6854   -2.4568    0.8794 H   0  0  0  0  0  0  0  0  0  0  0  0
   -1.5172   -0.9006    1.7208 H   0  0  0  0  0  0  0  0  0  0  0  0
   -3.0882   -1.4220    1.0924 H   0  0  0  0  0  0  0  0  0  0  0  0
    0.2230    0.1190    0.0776 H   0  0  0  0  0  0  0  0  0  0  0  0
   -0.1196    0.0786   -1.6308 H   0  0  0  0  0  0  0  0  0  0  0  0
    0.0645   -2.5515   -1.4357 H   0  0  0  0  0  0  0  0  0  0  0  0
    1.5426   -1.7333    0.9603 H   0  0  0  0  0  0  0  0  0  0  0  0
    1.5156   -3.2111    0.3272 H   0  0  0  0  0  0  0  0  0  0  0  0
    2.6941   -1.5499   -3.6166 H   0  0  0  0  0  0  0  0  0  0  0  0
  1  2  1  0
  2  3  1  0
  2  4  1  0
  4  5  1  0
  5  6  1  0
  5  7  1  0
  7  8  2  0
  7  9  1  0
  9 10  1  0
  9 11  1  0
  1 12  1  0
  1 13  1  0
  1 14  1  0
  2 15  1  0
  3 16  1  0
  3 17  1  0
  3 18  1  0
  4 19  1  0
  4 20  1  0
  5 21  1  6
  6 22  1  0
  6 23  1  0
  9 24  1  0
M  END
