
     RDKit          3D

 30 30  0  0  0  0  0  0  0  0999 V2000
    2.2508    0.4591    2.6154 N   0  0  0  0  0  0  0  0  0  0  0  0
    1.3461    1.3794    1.8891 C   0  0  1  0  0  0  0  0  0  0  0  0
    1.8037    1.4814    0.4283 C   0  0  0  0  0  0  0  0  0  0  0  0
    1.7993    0.1428   -0.3182 C   0  0  0  0  0  0  0  0  0  0  0  0
    1.9629    0.3294   -1.8106 C   0  0  0  0  0  0  0  0  0  0  0  0
    1.9539   -0.8353   -2.5215 N   0  0  0  0  0  0  0  0  0  0  0  0
    2.0960    1.4101   -2.3710 O   0  0  0  0  0  0  0  0  0  0  0  0
   -0.1263    0.9289    2.0522 C   0  0  0  0  0  0  0  0  0  0  0  0
   -0.4759   -0.0440    2.7151 O   0  0  0  0  0  0  0  0  0  0  0  0
   -1.3321    2.0053    1.3329 S   0  0  0  0  0  0  0  0  0  0  0  0
   -1.8606    0.9966   -0.0384 C   0  0  0  0  0  0  0  0  0  0  0  0
   -2.5140   -0.2223    0.1691 C   0  0  0  0  0  0  0  0  0  0  0  0
   -2.9077   -1.0054   -0.9181 C   0  0  0  0  0  0  0  0  0  0  0  0
   -2.6550   -0.5720   -2.2185 C   0  0  0  0  0  0  0  0  0  0  0  0
   -2.0130    0.6461   -2.4331 C   0  0  0  0  0  0  0  0  0  0  0  0
   -1.6217    1.4312   -1.3465 C   0  0  0  0  0  0  0  0  0  0  0  0
    3.1214    0.9393    2.8375 H   0  0  0  0  0  0  0  0  0  0  0  0
    1.8166    0.2056    3.5066 H   0  0  0  0  0  0  0  0  0  0  0  0
    1.4266    2.3631    2.3684 H   0  0  0  0  0  0  0  0  0  0  0  0
    2.8203    1.8969    0.3947 H   0  0  0  0  0  0  0  0  0  0  0  0
    1.1795    2.2083   -0.1036 H   0  0  0  0  0  0  0  0  0  0  0  0
    0.8593   -0.3937   -0.1525 H   0  0  0  0  0  0  0  0  0  0  0  0
    2.6194   -0.4916    0.0374 H   0  0  0  0  0  0  0  0  0  0  0  0
    1.9754   -0.7575   -3.5298 H   0  0  0  0  0  0  0  0  0  0  0  0
    1.6261   -1.7015   -2.1162 H   0  0  0  0  0  0  0  0  0  0  0  0
   -2.7184   -0.5758    1.1782 H   0  0  0  0  0  0  0  0  0  0  0  0
   -3.4139   -1.9523   -0.7477 H   0  0  0  0  0  0  0  0  0  0  0  0
   -2.9641   -1.1805   -3.0647 H   0  0  0  0  0  0  0  0  0  0  0  0
   -1.8163    0.9889   -3.4461 H   0  0  0  0  0  0  0  0  0  0  0  0
   -1.1204    2.3782   -1.5361 H   0  0  0  0  0  0  0  0  0  0  0  0
  1  2  1  0
  2  3  1  0
  3  4  1  0
  4  5  1  0
  5  6  1  0
  5  7  2  0
  2  8  1  0
  8  9  2  0
  8 10  1  0
 10 11  1  0
 11 12  2  0
 12 13  1  0
 13 14  2  0
 14 15  1  0
 15 16  2  0
 16 11  1  0
  1 17  1  0
  1 18  1  0
  2 19  1  1
  3 20  1  0
  3 21  1  0
  4 22  1  0
  4 23  1  0
  6 24  1  0
  6 25  1  0
 12 26  1  0
 13 27  1  0
 14 28  1  0
 15 29  1  0
 16 30  1  0
M  END
