
     RDKit          3D

 39 39  0  0  0  0  0  0  0  0999 V2000
    1.3351   -4.1995   -3.4383 C   0  0  0  0  0  0  0  0  0  0  0  0
    1.2296   -3.1429   -2.3487 C   0  0  0  0  0  0  0  0  0  0  0  0
   -0.2108   -2.6431   -2.1947 C   0  0  0  0  0  0  0  0  0  0  0  0
   -0.3759   -1.6258   -1.0493 C   0  0  2  0  0  0  0  0  0  0  0  0
   -1.8113   -1.4314   -0.7959 N   0  0  0  0  0  0  0  0  0  0  0  0
    0.2495   -0.2624   -1.3655 C   0  0  0  0  0  0  0  0  0  0  0  0
    0.8183    0.4079   -0.1270 C   0  0  0  0  0  0  0  0  0  0  0  0
    2.0273    0.6666   -0.0711 O   0  0  0  0  0  0  0  0  0  0  0  0
   -0.1327    0.7657    1.0362 C   0  0  1  0  0  0  0  0  0  0  0  0
    0.6955    1.1600    2.2087 N   0  0  0  0  0  0  0  0  0  0  0  0
   -1.0808    1.9034    0.6229 C   0  0  0  0  0  0  0  0  0  0  0  0
   -2.2556    2.0804    1.5576 C   0  0  0  0  0  0  0  0  0  0  0  0
   -2.1775    2.9612    2.6440 C   0  0  0  0  0  0  0  0  0  0  0  0
   -3.2627    3.1188    3.5074 C   0  0  0  0  0  0  0  0  0  0  0  0
   -4.4345    2.3949    3.2957 C   0  0  0  0  0  0  0  0  0  0  0  0
   -4.5203    1.5091    2.2234 C   0  0  0  0  0  0  0  0  0  0  0  0
   -3.4355    1.3500    1.3595 C   0  0  0  0  0  0  0  0  0  0  0  0
    2.3694   -4.5451   -3.5320 H   0  0  0  0  0  0  0  0  0  0  0  0
    0.7076   -5.0662   -3.2073 H   0  0  0  0  0  0  0  0  0  0  0  0
    1.0223   -3.7963   -4.4068 H   0  0  0  0  0  0  0  0  0  0  0  0
    1.9043   -2.3176   -2.5966 H   0  0  0  0  0  0  0  0  0  0  0  0
    1.5761   -3.5710   -1.4009 H   0  0  0  0  0  0  0  0  0  0  0  0
   -0.5528   -2.2035   -3.1408 H   0  0  0  0  0  0  0  0  0  0  0  0
   -0.8531   -3.5131   -2.0018 H   0  0  0  0  0  0  0  0  0  0  0  0
    0.0702   -2.0451   -0.1393 H   0  0  0  0  0  0  0  0  0  0  0  0
   -2.2186   -2.3129   -0.4760 H   0  0  0  0  0  0  0  0  0  0  0  0
   -2.2928   -1.2207   -1.6723 H   0  0  0  0  0  0  0  0  0  0  0  0
   -0.4525    0.4194   -1.8578 H   0  0  0  0  0  0  0  0  0  0  0  0
    1.0835   -0.3704   -2.0677 H   0  0  0  0  0  0  0  0  0  0  0  0
   -0.6871   -0.1320    1.3247 H   0  0  0  0  0  0  0  0  0  0  0  0
    1.3011    0.3713    2.4426 H   0  0  0  0  0  0  0  0  0  0  0  0
    1.3534    1.8769    1.8901 H   0  0  0  0  0  0  0  0  0  0  0  0
   -1.4788    1.7322   -0.3844 H   0  0  0  0  0  0  0  0  0  0  0  0
   -0.5296    2.8506    0.5412 H   0  0  0  0  0  0  0  0  0  0  0  0
   -1.2628    3.5199    2.8299 H   0  0  0  0  0  0  0  0  0  0  0  0
   -3.1892    3.8019    4.3492 H   0  0  0  0  0  0  0  0  0  0  0  0
   -5.2774    2.5163    3.9704 H   0  0  0  0  0  0  0  0  0  0  0  0
   -5.4307    0.9387    2.0617 H   0  0  0  0  0  0  0  0  0  0  0  0
   -3.5144    0.6489    0.5319 H   0  0  0  0  0  0  0  0  0  0  0  0
  1  2  1  0
  2  3  1  0
  3  4  1  0
  4  5  1  0
  4  6  1  0
  6  7  1  0
  7  8  2  0
  7  9  1  0
  9 10  1  0
  9 11  1  0
 11 12  1  0
 12 13  2  0
 13 14  1  0
 14 15  2  0
 15 16  1  0
 16 17  2  0
 17 12  1  0
  1 18  1  0
  1 19  1  0
  1 20  1  0
  2 21  1  0
  2 22  1  0
  3 23  1  0
  3 24  1  0
  4 25  1  1
  5 26  1  0
  5 27  1  0
  6 28  1  0
  6 29  1  0
  9 30  1  1
 10 31  1  0
 10 32  1  0
 11 33  1  0
 11 34  1  0
 13 35  1  0
 14 36  1  0
 15 37  1  0
 16 38  1  0
 17 39  1  0
M  END
