
     RDKit          3D

 29 28  0  0  0  0  0  0  0  0999 V2000
   -1.8743    3.1341   -1.8049 C   0  0  0  0  0  0  0  0  0  0  0  0
   -1.2769    2.3550   -0.6389 C   0  0  0  0  0  0  0  0  0  0  0  0
   -1.1516    0.8449   -0.9169 C   0  0  2  0  0  0  0  0  0  0  0  0
   -2.4793    0.2682   -1.1545 N   0  0  0  0  0  0  0  0  0  0  0  0
   -0.4716    0.1101    0.2443 C   0  0  0  0  0  0  0  0  0  0  0  0
    0.9654    0.5464    0.4776 C   0  0  0  0  0  0  0  0  0  0  0  0
    1.3043    0.9841    1.5830 O   0  0  0  0  0  0  0  0  0  0  0  0
    1.9769    0.4278   -0.6852 C   0  0  1  0  0  0  0  0  0  0  0  0
    3.2895    0.9333   -0.2311 N   0  0  0  0  0  0  0  0  0  0  0  0
    2.1013   -1.0187   -1.1778 C   0  0  0  0  0  0  0  0  0  0  0  0
    3.0688   -1.1787   -2.3440 C   0  0  0  0  0  0  0  0  0  0  0  0
   -2.9077    2.8342   -2.0033 H   0  0  0  0  0  0  0  0  0  0  0  0
   -1.8769    4.2051   -1.5779 H   0  0  0  0  0  0  0  0  0  0  0  0
   -1.2883    2.9834   -2.7171 H   0  0  0  0  0  0  0  0  0  0  0  0
   -0.2861    2.7748   -0.4284 H   0  0  0  0  0  0  0  0  0  0  0  0
   -1.8871    2.5276    0.2568 H   0  0  0  0  0  0  0  0  0  0  0  0
   -0.5701    0.7044   -1.8344 H   0  0  0  0  0  0  0  0  0  0  0  0
   -2.4175   -0.7407   -1.2856 H   0  0  0  0  0  0  0  0  0  0  0  0
   -3.0798    0.4163   -0.3427 H   0  0  0  0  0  0  0  0  0  0  0  0
   -1.0292    0.2796    1.1749 H   0  0  0  0  0  0  0  0  0  0  0  0
   -0.4685   -0.9736    0.0811 H   0  0  0  0  0  0  0  0  0  0  0  0
    1.6402    1.0805   -1.4968 H   0  0  0  0  0  0  0  0  0  0  0  0
    3.1438    1.8621    0.1749 H   0  0  0  0  0  0  0  0  0  0  0  0
    3.5833    0.3746    0.5744 H   0  0  0  0  0  0  0  0  0  0  0  0
    1.1210   -1.3829   -1.5061 H   0  0  0  0  0  0  0  0  0  0  0  0
    2.4121   -1.6752   -0.3551 H   0  0  0  0  0  0  0  0  0  0  0  0
    4.0954   -0.9370   -2.0527 H   0  0  0  0  0  0  0  0  0  0  0  0
    2.7839   -0.5320   -3.1801 H   0  0  0  0  0  0  0  0  0  0  0  0
    3.0598   -2.2143   -2.6992 H   0  0  0  0  0  0  0  0  0  0  0  0
  1  2  1  0
  2  3  1  0
  3  4  1  0
  3  5  1  0
  5  6  1  0
  6  7  2  0
  6  8  1  0
  8  9  1  0
  8 10  1  0
 10 11  1  0
  1 12  1  0
  1 13  1  0
  1 14  1  0
  2 15  1  0
  2 16  1  0
  3 17  1  6
  4 18  1  0
  4 19  1  0
  5 20  1  0
  5 21  1  0
  8 22  1  6
  9 23  1  0
  9 24  1  0
 10 25  1  0
 10 26  1  0
 11 27  1  0
 11 28  1  0
 11 29  1  0
M  END
