
     RDKit          3D

 23 22  0  0  0  0  0  0  0  0999 V2000
   -1.6134    1.4331   -0.0996 C   0  0  0  0  0  0  0  0  0  0  0  0
   -0.2392    1.1969    0.5240 C   0  0  2  0  0  0  0  0  0  0  0  0
   -0.3792    1.2227    1.9816 N   0  0  0  0  0  0  0  0  0  0  0  0
    0.7648    2.2415    0.0267 C   0  0  0  0  0  0  0  0  0  0  0  0
    2.1897    1.8356    0.3529 C   0  0  0  0  0  0  0  0  0  0  0  0
    2.5963    1.8463    1.5193 O   0  0  0  0  0  0  0  0  0  0  0  0
    3.0946    1.4252   -0.8220 C   0  0  2  0  0  0  0  0  0  0  0  0
    2.6255    0.1192   -1.4466 C   0  0  0  0  0  0  0  0  0  0  0  0
    4.4826    1.2652   -0.3487 N   0  0  0  0  0  0  0  0  0  0  0  0
   -1.5596    1.3601   -1.1913 H   0  0  0  0  0  0  0  0  0  0  0  0
   -2.3360    0.6850    0.2453 H   0  0  0  0  0  0  0  0  0  0  0  0
   -2.0055    2.4249    0.1525 H   0  0  0  0  0  0  0  0  0  0  0  0
    0.1000    0.1941    0.2403 H   0  0  0  0  0  0  0  0  0  0  0  0
    0.5498    1.1483    2.4113 H   0  0  0  0  0  0  0  0  0  0  0  0
   -0.7364    2.1278    2.2881 H   0  0  0  0  0  0  0  0  0  0  0  0
    0.5800    3.2285    0.4678 H   0  0  0  0  0  0  0  0  0  0  0  0
    0.6799    2.3700   -1.0586 H   0  0  0  0  0  0  0  0  0  0  0  0
    3.0786    2.2313   -1.5631 H   0  0  0  0  0  0  0  0  0  0  0  0
    3.2995   -0.1995   -2.2494 H   0  0  0  0  0  0  0  0  0  0  0  0
    1.6262    0.2278   -1.8810 H   0  0  0  0  0  0  0  0  0  0  0  0
    2.5730   -0.6852   -0.7039 H   0  0  0  0  0  0  0  0  0  0  0  0
    4.7544    2.1240    0.1362 H   0  0  0  0  0  0  0  0  0  0  0  0
    4.4823    0.5663    0.3998 H   0  0  0  0  0  0  0  0  0  0  0  0
  1  2  1  0
  2  3  1  0
  2  4  1  0
  4  5  1  0
  5  6  2  0
  5  7  1  0
  7  8  1  0
  7  9  1  0
  1 10  1  0
  1 11  1  0
  1 12  1  0
  2 13  1  1
  3 14  1  0
  3 15  1  0
  4 16  1  0
  4 17  1  0
  7 18  1  6
  8 19  1  0
  8 20  1  0
  8 21  1  0
  9 22  1  0
  9 23  1  0
M  END
