
     RDKit          3D

 27 27  0  0  0  0  0  0  0  0999 V2000
   -2.9327    0.5994   -1.2755 N   0  0  0  0  0  0  0  0  0  0  0  0
   -1.5479    0.1351   -1.0675 C   0  0  2  0  0  0  0  0  0  0  0  0
   -1.5545   -1.3044   -0.4921 C   0  0  0  0  0  0  0  0  0  0  0  0
   -2.1807   -1.4570    0.8732 C   0  0  0  0  0  0  0  0  0  0  0  0
   -3.3150   -2.1306    1.1040 C   0  0  0  0  0  0  0  0  0  0  0  0
   -0.7589    1.1571   -0.2125 C   0  0  0  0  0  0  0  0  0  0  0  0
    0.7353    0.9096   -0.1694 C   0  0  0  0  0  0  0  0  0  0  0  0
    1.6100    1.2779   -1.2068 C   0  0  0  0  0  0  0  0  0  0  0  0
    1.0193    2.1762   -2.7745 Br  0  0  0  0  0  0  0  0  0  0  0  0
    2.9803    1.0063   -1.1137 C   0  0  0  0  0  0  0  0  0  0  0  0
    3.4970    0.3691    0.0127 C   0  0  0  0  0  0  0  0  0  0  0  0
    2.6468    0.0056    1.0515 C   0  0  0  0  0  0  0  0  0  0  0  0
    1.2798    0.2750    0.9622 C   0  0  0  0  0  0  0  0  0  0  0  0
   -3.4304    0.5905   -0.3850 H   0  0  0  0  0  0  0  0  0  0  0  0
   -2.9293    1.5657   -1.5983 H   0  0  0  0  0  0  0  0  0  0  0  0
   -1.0915    0.0739   -2.0620 H   0  0  0  0  0  0  0  0  0  0  0  0
   -0.5267   -1.6829   -0.4386 H   0  0  0  0  0  0  0  0  0  0  0  0
   -2.0684   -1.9612   -1.2077 H   0  0  0  0  0  0  0  0  0  0  0  0
   -1.6600   -1.0100    1.7153 H   0  0  0  0  0  0  0  0  0  0  0  0
   -3.7162   -2.2222    2.1084 H   0  0  0  0  0  0  0  0  0  0  0  0
   -3.8691   -2.6021    0.2974 H   0  0  0  0  0  0  0  0  0  0  0  0
   -0.9269    2.1744   -0.5901 H   0  0  0  0  0  0  0  0  0  0  0  0
   -1.1575    1.1858    0.8102 H   0  0  0  0  0  0  0  0  0  0  0  0
    3.6563    1.2915   -1.9163 H   0  0  0  0  0  0  0  0  0  0  0  0
    4.5616    0.1606    0.0803 H   0  0  0  0  0  0  0  0  0  0  0  0
    3.0464   -0.4885    1.9338 H   0  0  0  0  0  0  0  0  0  0  0  0
    0.6384   -0.0185    1.7906 H   0  0  0  0  0  0  0  0  0  0  0  0
  1  2  1  0
  2  3  1  0
  3  4  1  0
  4  5  2  3
  2  6  1  0
  6  7  1  0
  7  8  2  0
  8  9  1  0
  8 10  1  0
 10 11  2  0
 11 12  1  0
 12 13  2  0
 13  7  1  0
  1 14  1  0
  1 15  1  0
  2 16  1  6
  3 17  1  0
  3 18  1  0
  4 19  1  0
  5 20  1  0
  5 21  1  0
  6 22  1  0
  6 23  1  0
 10 24  1  0
 11 25  1  0
 12 26  1  0
 13 27  1  0
M  END
