
     RDKit          3D

 30 30  0  0  0  0  0  0  0  0999 V2000
    0.6167    1.3054    0.5995 N   0  0  0  0  0  0  0  0  0  0  0  0
    0.8462    0.9428    2.0019 C   0  0  1  0  0  0  0  0  0  0  0  0
    0.4824   -0.5315    2.2820 C   0  0  0  0  0  0  0  0  0  0  0  0
   -0.9972   -0.8791    2.0501 C   0  0  0  0  0  0  0  0  0  0  0  0
   -1.2927   -1.4700    0.6880 C   0  0  0  0  0  0  0  0  0  0  0  0
   -1.0234   -2.8078    0.3504 C   0  0  0  0  0  0  0  0  0  0  0  0
   -0.2648   -4.0401    1.5839 Br  0  0  0  0  0  0  0  0  0  0  0  0
   -1.3178   -3.2934   -0.9296 C   0  0  0  0  0  0  0  0  0  0  0  0
   -1.8838   -2.4543   -1.8878 C   0  0  0  0  0  0  0  0  0  0  0  0
   -2.1573   -1.1283   -1.5693 C   0  0  0  0  0  0  0  0  0  0  0  0
   -1.8655   -0.6423   -0.2935 C   0  0  0  0  0  0  0  0  0  0  0  0
    2.2969    1.2640    2.4461 C   0  0  0  0  0  0  0  0  0  0  0  0
    3.3741    0.5202    1.7000 C   0  0  0  0  0  0  0  0  0  0  0  0
    4.2211   -0.3459    2.2710 C   0  0  0  0  0  0  0  0  0  0  0  0
    1.0579    0.6122   -0.0060 H   0  0  0  0  0  0  0  0  0  0  0  0
    1.0667    2.1954    0.3914 H   0  0  0  0  0  0  0  0  0  0  0  0
    0.1838    1.5752    2.6064 H   0  0  0  0  0  0  0  0  0  0  0  0
    1.1342   -1.2010    1.7085 H   0  0  0  0  0  0  0  0  0  0  0  0
    0.6985   -0.7234    3.3418 H   0  0  0  0  0  0  0  0  0  0  0  0
   -1.6279    0.0020    2.2254 H   0  0  0  0  0  0  0  0  0  0  0  0
   -1.3225   -1.5985    2.8124 H   0  0  0  0  0  0  0  0  0  0  0  0
   -1.1104   -4.3286   -1.1891 H   0  0  0  0  0  0  0  0  0  0  0  0
   -2.1106   -2.8349   -2.8800 H   0  0  0  0  0  0  0  0  0  0  0  0
   -2.5957   -0.4672   -2.3125 H   0  0  0  0  0  0  0  0  0  0  0  0
   -2.0770    0.4022   -0.0682 H   0  0  0  0  0  0  0  0  0  0  0  0
    2.4814    2.3387    2.3168 H   0  0  0  0  0  0  0  0  0  0  0  0
    2.3840    1.0737    3.5238 H   0  0  0  0  0  0  0  0  0  0  0  0
    3.4688    0.7209    0.6353 H   0  0  0  0  0  0  0  0  0  0  0  0
    4.9830   -0.8477    1.6821 H   0  0  0  0  0  0  0  0  0  0  0  0
    4.1753   -0.5780    3.3305 H   0  0  0  0  0  0  0  0  0  0  0  0
  1  2  1  0
  2  3  1  0
  3  4  1  0
  4  5  1  0
  5  6  2  0
  6  7  1  0
  6  8  1  0
  8  9  2  0
  9 10  1  0
 10 11  2  0
  2 12  1  0
 12 13  1  0
 13 14  2  3
 11  5  1  0
  1 15  1  0
  1 16  1  0
  2 17  1  1
  3 18  1  0
  3 19  1  0
  4 20  1  0
  4 21  1  0
  8 22  1  0
  9 23  1  0
 10 24  1  0
 11 25  1  0
 12 26  1  0
 12 27  1  0
 13 28  1  0
 14 29  1  0
 14 30  1  0
M  END
