
     RDKit          3D

 21 20  0  0  0  0  0  0  0  0999 V2000
   -2.3866   -0.6051    1.3570 C   0  0  0  0  0  0  0  0  0  0  0  0
   -1.2795    0.1924    0.6708 C   0  0  2  0  0  0  0  0  0  0  0  0
   -1.6425    0.4584   -0.7186 N   0  0  0  0  0  0  0  0  0  0  0  0
    0.0967   -0.4913    0.7480 C   0  0  0  0  0  0  0  0  0  0  0  0
    0.1621   -1.9520    0.3014 C   0  0  0  0  0  0  0  0  0  0  0  0
   -0.2094   -2.2152   -1.1450 C   0  0  0  0  0  0  0  0  0  0  0  0
    0.6306   -1.5693   -2.2167 C   0  0  0  0  0  0  0  0  0  0  0  0
   -1.1021   -3.0153   -1.4335 O   0  0  0  0  0  0  0  0  0  0  0  0
   -2.1050   -0.8510    2.3864 H   0  0  0  0  0  0  0  0  0  0  0  0
   -2.6095   -1.5397    0.8316 H   0  0  0  0  0  0  0  0  0  0  0  0
   -3.3144   -0.0231    1.3980 H   0  0  0  0  0  0  0  0  0  0  0  0
   -1.2013    1.1596    1.1828 H   0  0  0  0  0  0  0  0  0  0  0  0
   -2.6069    0.7885   -0.7698 H   0  0  0  0  0  0  0  0  0  0  0  0
   -1.0676    1.2146   -1.0887 H   0  0  0  0  0  0  0  0  0  0  0  0
    0.4322   -0.4532    1.7931 H   0  0  0  0  0  0  0  0  0  0  0  0
    0.8286    0.1009    0.1839 H   0  0  0  0  0  0  0  0  0  0  0  0
   -0.4800   -2.5708    0.9385 H   0  0  0  0  0  0  0  0  0  0  0  0
    1.1823   -2.3286    0.4437 H   0  0  0  0  0  0  0  0  0  0  0  0
    0.6434   -0.4846   -2.1009 H   0  0  0  0  0  0  0  0  0  0  0  0
    1.6492   -1.9617   -2.1632 H   0  0  0  0  0  0  0  0  0  0  0  0
    0.2112   -1.8039   -3.1993 H   0  0  0  0  0  0  0  0  0  0  0  0
  1  2  1  0
  2  3  1  0
  2  4  1  0
  4  5  1  0
  5  6  1  0
  6  7  1  0
  6  8  2  0
  1  9  1  0
  1 10  1  0
  1 11  1  0
  2 12  1  1
  3 13  1  0
  3 14  1  0
  4 15  1  0
  4 16  1  0
  5 17  1  0
  5 18  1  0
  7 19  1  0
  7 20  1  0
  7 21  1  0
M  END
