
     RDKit          3D

 28 28  0  0  0  0  0  0  0  0999 V2000
    0.3663    2.1355    0.5998 C   0  0  0  0  0  0  0  0  0  0  0  0
   -0.1003    0.7094    0.2874 C   0  0  0  0  0  0  0  0  0  0  0  0
   -1.3505    0.3819    1.1129 C   0  0  0  0  0  0  0  0  0  0  0  0
   -0.2905    0.5033   -1.2354 C   0  0  2  0  0  0  0  0  0  0  0  0
   -1.3939    1.3333   -1.7710 N   0  0  0  0  0  0  0  0  0  0  0  0
   -0.5616   -0.9754   -1.5871 C   0  0  0  0  0  0  0  0  0  0  0  0
   -1.6798   -1.3550   -1.9442 O   0  0  0  0  0  0  0  0  0  0  0  0
    0.5434   -1.9812   -1.4935 C   0  0  0  0  0  0  0  0  0  0  0  0
    1.8908   -1.6229   -1.3556 C   0  0  0  0  0  0  0  0  0  0  0  0
    2.8780   -2.6126   -1.2767 C   0  0  0  0  0  0  0  0  0  0  0  0
    2.5241   -3.9592   -1.3394 C   0  0  0  0  0  0  0  0  0  0  0  0
    3.7423   -5.1687   -1.2417 Cl  0  0  0  0  0  0  0  0  0  0  0  0
    1.1898   -4.3283   -1.4831 C   0  0  0  0  0  0  0  0  0  0  0  0
    0.2028   -3.3417   -1.5620 C   0  0  0  0  0  0  0  0  0  0  0  0
    1.2794    2.3754    0.0449 H   0  0  0  0  0  0  0  0  0  0  0  0
    0.5888    2.2430    1.6669 H   0  0  0  0  0  0  0  0  0  0  0  0
   -0.3958    2.8783    0.3418 H   0  0  0  0  0  0  0  0  0  0  0  0
    0.6901    0.0324    0.6341 H   0  0  0  0  0  0  0  0  0  0  0  0
   -1.1325    0.4658    2.1835 H   0  0  0  0  0  0  0  0  0  0  0  0
   -1.6922   -0.6414    0.9288 H   0  0  0  0  0  0  0  0  0  0  0  0
   -2.1768    1.0652    0.8923 H   0  0  0  0  0  0  0  0  0  0  0  0
    0.6085    0.8227   -1.7729 H   0  0  0  0  0  0  0  0  0  0  0  0
   -2.2716    0.9402   -1.4164 H   0  0  0  0  0  0  0  0  0  0  0  0
   -1.4607    1.1599   -2.7765 H   0  0  0  0  0  0  0  0  0  0  0  0
    2.2097   -0.5860   -1.3119 H   0  0  0  0  0  0  0  0  0  0  0  0
    3.9216   -2.3256   -1.1691 H   0  0  0  0  0  0  0  0  0  0  0  0
    0.9086   -5.3771   -1.5362 H   0  0  0  0  0  0  0  0  0  0  0  0
   -0.8379   -3.6427   -1.6767 H   0  0  0  0  0  0  0  0  0  0  0  0
  1  2  1  0
  2  3  1  0
  2  4  1  0
  4  5  1  0
  4  6  1  0
  6  7  2  0
  6  8  1  0
  8  9  2  0
  9 10  1  0
 10 11  2  0
 11 12  1  0
 11 13  1  0
 13 14  2  0
 14  8  1  0
  1 15  1  0
  1 16  1  0
  1 17  1  0
  2 18  1  0
  3 19  1  0
  3 20  1  0
  3 21  1  0
  4 22  1  6
  5 23  1  0
  5 24  1  0
  9 25  1  0
 10 26  1  0
 13 27  1  0
 14 28  1  0
M  END
