
     RDKit          3D

 54 53  0  0  0  0  0  0  0  0999 V2000
    5.5103   -0.4839    3.9685 C   0  0  0  0  0  0  0  0  0  0  0  0
    4.4398   -0.8589    4.9820 C   0  0  0  0  0  0  0  0  0  0  0  0
    3.0860   -1.1784    4.3435 C   0  0  0  0  0  0  0  0  0  0  0  0
    2.4264    0.0407    3.6915 C   0  0  0  0  0  0  0  0  0  0  0  0
    0.9923   -0.2269    3.2249 C   0  0  0  0  0  0  0  0  0  0  0  0
    0.9119   -1.2302    2.0715 C   0  0  0  0  0  0  0  0  0  0  0  0
   -0.5292   -1.3958    1.5821 C   0  0  0  0  0  0  0  0  0  0  0  0
   -0.6824   -2.4543    0.4851 C   0  0  0  0  0  0  0  0  0  0  0  0
    0.1147   -2.2039   -0.7969 C   0  0  0  0  0  0  0  0  0  0  0  0
   -0.1618   -0.8868   -1.5313 C   0  0  0  0  0  0  0  0  0  0  0  0
   -1.5535   -0.7884   -2.1672 C   0  0  0  0  0  0  0  0  0  0  0  0
   -2.6372   -0.1204   -1.3145 C   0  0  0  0  0  0  0  0  0  0  0  0
   -2.3786    1.3389   -0.9181 C   0  0  0  0  0  0  0  0  0  0  0  0
   -2.1984    2.2752   -2.1198 C   0  0  0  0  0  0  0  0  0  0  0  0
   -2.1397    3.7636   -1.7190 C   0  0  1  0  0  0  0  0  0  0  0  0
   -0.9767    4.0199   -0.8543 N   0  0  0  0  0  0  0  0  0  0  0  0
   -2.1712    4.6927   -2.9554 C   0  0  0  0  0  0  0  0  0  0  0  0
   -0.9824    4.5698   -3.8208 C   0  0  0  0  0  0  0  0  0  0  0  0
   -0.0176    4.4746   -4.5299 C   0  0  0  0  0  0  0  0  0  0  0  0
    6.4759   -0.3576    4.4688 H   0  0  0  0  0  0  0  0  0  0  0  0
    5.6238   -1.2641    3.2094 H   0  0  0  0  0  0  0  0  0  0  0  0
    5.2734    0.4575    3.4641 H   0  0  0  0  0  0  0  0  0  0  0  0
    4.7802   -1.7424    5.5359 H   0  0  0  0  0  0  0  0  0  0  0  0
    4.3291   -0.0487    5.7124 H   0  0  0  0  0  0  0  0  0  0  0  0
    2.4228   -1.5713    5.1240 H   0  0  0  0  0  0  0  0  0  0  0  0
    3.2197   -1.9762    3.6041 H   0  0  0  0  0  0  0  0  0  0  0  0
    2.4037    0.8639    4.4152 H   0  0  0  0  0  0  0  0  0  0  0  0
    3.0235    0.3845    2.8390 H   0  0  0  0  0  0  0  0  0  0  0  0
    0.5537    0.7253    2.9002 H   0  0  0  0  0  0  0  0  0  0  0  0
    0.3896   -0.5808    4.0699 H   0  0  0  0  0  0  0  0  0  0  0  0
    1.2942   -2.2058    2.3920 H   0  0  0  0  0  0  0  0  0  0  0  0
    1.5494   -0.8808    1.2515 H   0  0  0  0  0  0  0  0  0  0  0  0
   -0.9143   -0.4316    1.2341 H   0  0  0  0  0  0  0  0  0  0  0  0
   -1.1620   -1.6922    2.4290 H   0  0  0  0  0  0  0  0  0  0  0  0
   -1.7447   -2.5651    0.2393 H   0  0  0  0  0  0  0  0  0  0  0  0
   -0.3718   -3.4250    0.8931 H   0  0  0  0  0  0  0  0  0  0  0  0
   -0.0715   -3.0387   -1.4852 H   0  0  0  0  0  0  0  0  0  0  0  0
    1.1861   -2.2504   -0.5655 H   0  0  0  0  0  0  0  0  0  0  0  0
    0.5685   -0.8322   -2.3498 H   0  0  0  0  0  0  0  0  0  0  0  0
    0.0580   -0.0292   -0.8897 H   0  0  0  0  0  0  0  0  0  0  0  0
   -1.4639   -0.2316   -3.1076 H   0  0  0  0  0  0  0  0  0  0  0  0
   -1.8986   -1.7889   -2.4546 H   0  0  0  0  0  0  0  0  0  0  0  0
   -3.5802   -0.1621   -1.8751 H   0  0  0  0  0  0  0  0  0  0  0  0
   -2.8074   -0.7022   -0.4037 H   0  0  0  0  0  0  0  0  0  0  0  0
   -1.5069    1.3988   -0.2585 H   0  0  0  0  0  0  0  0  0  0  0  0
   -3.2361    1.6807   -0.3241 H   0  0  0  0  0  0  0  0  0  0  0  0
   -1.2861    2.0006   -2.6618 H   0  0  0  0  0  0  0  0  0  0  0  0
   -3.0367    2.1267   -2.8116 H   0  0  0  0  0  0  0  0  0  0  0  0
   -3.0358    3.9895   -1.1272 H   0  0  0  0  0  0  0  0  0  0  0  0
   -0.1256    3.7875   -1.3696 H   0  0  0  0  0  0  0  0  0  0  0  0
   -0.9109    5.0189   -0.6628 H   0  0  0  0  0  0  0  0  0  0  0  0
   -2.2601    5.7345   -2.6198 H   0  0  0  0  0  0  0  0  0  0  0  0
   -3.0715    4.4804   -3.5449 H   0  0  0  0  0  0  0  0  0  0  0  0
    0.8357    4.3863   -5.1617 H   0  0  0  0  0  0  0  0  0  0  0  0
  1  2  1  0
  2  3  1  0
  3  4  1  0
  4  5  1  0
  5  6  1  0
  6  7  1  0
  7  8  1  0
  8  9  1  0
  9 10  1  0
 10 11  1  0
 11 12  1  0
 12 13  1  0
 13 14  1  0
 14 15  1  0
 15 16  1  0
 15 17  1  0
 17 18  1  0
 18 19  3  0
  1 20  1  0
  1 21  1  0
  1 22  1  0
  2 23  1  0
  2 24  1  0
  3 25  1  0
  3 26  1  0
  4 27  1  0
  4 28  1  0
  5 29  1  0
  5 30  1  0
  6 31  1  0
  6 32  1  0
  7 33  1  0
  7 34  1  0
  8 35  1  0
  8 36  1  0
  9 37  1  0
  9 38  1  0
 10 39  1  0
 10 40  1  0
 11 41  1  0
 11 42  1  0
 12 43  1  0
 12 44  1  0
 13 45  1  0
 13 46  1  0
 14 47  1  0
 14 48  1  0
 15 49  1  1
 16 50  1  0
 16 51  1  0
 17 52  1  0
 17 53  1  0
 19 54  1  0
M  END
