
     RDKit          3D

 27 26  0  0  0  0  0  0  0  0999 V2000
    1.6874   -2.4233    0.1132 C   0  0  0  0  0  0  0  0  0  0  0  0
    0.9652   -1.3641    0.9347 C   0  0  0  0  0  0  0  0  0  0  0  0
   -0.5598   -1.5130    0.9025 C   0  0  0  0  0  0  0  0  0  0  0  0
   -1.2055   -1.1155   -0.4343 C   0  0  0  0  0  0  0  0  0  0  0  0
   -1.8789    0.2852   -0.5320 C   0  0  0  0  0  0  0  0  0  0  0  0
   -2.4603    0.4113   -1.9595 C   0  0  0  0  0  0  0  0  0  0  0  0
   -3.0375    0.3481    0.3807 N   0  0  0  0  0  0  0  0  0  0  0  0
   -0.8863    1.4670   -0.3254 C   0  0  0  0  0  0  0  0  0  0  0  0
   -0.5532    1.7649    1.0807 C   0  0  0  0  0  0  0  0  0  0  0  0
   -0.2768    2.0273    2.2198 C   0  0  0  0  0  0  0  0  0  0  0  0
    1.4515   -2.3416   -0.9514 H   0  0  0  0  0  0  0  0  0  0  0  0
    2.7706   -2.3089    0.2238 H   0  0  0  0  0  0  0  0  0  0  0  0
    1.4194   -3.4302    0.4489 H   0  0  0  0  0  0  0  0  0  0  0  0
    1.2687   -0.3717    0.5887 H   0  0  0  0  0  0  0  0  0  0  0  0
    1.2994   -1.4538    1.9754 H   0  0  0  0  0  0  0  0  0  0  0  0
   -0.8011   -2.5652    1.1031 H   0  0  0  0  0  0  0  0  0  0  0  0
   -0.9957   -0.9517    1.7338 H   0  0  0  0  0  0  0  0  0  0  0  0
   -1.9762   -1.8704   -0.6499 H   0  0  0  0  0  0  0  0  0  0  0  0
   -0.4760   -1.2147   -1.2471 H   0  0  0  0  0  0  0  0  0  0  0  0
   -3.1659   -0.3986   -2.1807 H   0  0  0  0  0  0  0  0  0  0  0  0
   -1.6640    0.3706   -2.7119 H   0  0  0  0  0  0  0  0  0  0  0  0
   -2.9944    1.3594   -2.0958 H   0  0  0  0  0  0  0  0  0  0  0  0
   -3.4760    1.2666    0.3101 H   0  0  0  0  0  0  0  0  0  0  0  0
   -2.7132    0.2850    1.3462 H   0  0  0  0  0  0  0  0  0  0  0  0
   -1.3187    2.3824   -0.7520 H   0  0  0  0  0  0  0  0  0  0  0  0
    0.0356    1.2761   -0.8884 H   0  0  0  0  0  0  0  0  0  0  0  0
   -0.0277    2.2598    3.2298 H   0  0  0  0  0  0  0  0  0  0  0  0
  1  2  1  0
  2  3  1  0
  3  4  1  0
  4  5  1  0
  5  6  1  0
  5  7  1  0
  5  8  1  0
  8  9  1  0
  9 10  3  0
  1 11  1  0
  1 12  1  0
  1 13  1  0
  2 14  1  0
  2 15  1  0
  3 16  1  0
  3 17  1  0
  4 18  1  0
  4 19  1  0
  6 20  1  0
  6 21  1  0
  6 22  1  0
  7 23  1  0
  7 24  1  0
  8 25  1  0
  8 26  1  0
 10 27  1  0
M  END
