
     RDKit          3D

 20 19  0  0  0  0  0  0  0  0999 V2000
    0.5303   -1.7605   -1.6401 C   0  0  0  0  0  0  0  0  0  0  0  0
    0.6130   -1.0525   -0.2791 C   0  0  0  0  0  0  0  0  0  0  0  0
    0.8266   -2.1189    0.8108 C   0  0  0  0  0  0  0  0  0  0  0  0
   -0.5988   -0.1052    0.0247 C   0  0  1  0  0  0  0  0  0  0  0  0
   -0.8096    0.9202   -1.1080 C   0  0  0  0  0  0  0  0  0  0  0  0
   -1.8488   -0.8835    0.1623 N   0  0  0  0  0  0  0  0  0  0  0  0
   -0.3165    0.6680    1.2736 C   0  0  0  0  0  0  0  0  0  0  0  0
   -0.1040    1.2931    2.2296 N   0  0  0  0  0  0  0  0  0  0  0  0
    0.5201   -1.0433   -2.4659 H   0  0  0  0  0  0  0  0  0  0  0  0
   -0.3602   -2.3918   -1.7182 H   0  0  0  0  0  0  0  0  0  0  0  0
    1.4047   -2.4037   -1.7915 H   0  0  0  0  0  0  0  0  0  0  0  0
    1.5242   -0.4369   -0.2989 H   0  0  0  0  0  0  0  0  0  0  0  0
    1.7257   -2.7082    0.5984 H   0  0  0  0  0  0  0  0  0  0  0  0
   -0.0176   -2.8139    0.8678 H   0  0  0  0  0  0  0  0  0  0  0  0
    0.9651   -1.6665    1.7975 H   0  0  0  0  0  0  0  0  0  0  0  0
    0.1123    1.4788   -1.3101 H   0  0  0  0  0  0  0  0  0  0  0  0
   -1.5811    1.6551   -0.8442 H   0  0  0  0  0  0  0  0  0  0  0  0
   -1.1258    0.4463   -2.0437 H   0  0  0  0  0  0  0  0  0  0  0  0
   -2.0969   -1.3044   -0.7313 H   0  0  0  0  0  0  0  0  0  0  0  0
   -2.6163   -0.2540    0.4005 H   0  0  0  0  0  0  0  0  0  0  0  0
  1  2  1  0
  2  3  1  0
  2  4  1  0
  4  5  1  0
  4  6  1  0
  4  7  1  1
  7  8  3  0
  1  9  1  0
  1 10  1  0
  1 11  1  0
  2 12  1  0
  3 13  1  0
  3 14  1  0
  3 15  1  0
  5 16  1  0
  5 17  1  0
  5 18  1  0
  6 19  1  0
  6 20  1  0
M  END
