
     RDKit          3D

 38 38  0  0  0  0  0  0  0  0999 V2000
    3.9628   -0.3529   -0.9505 C   0  0  0  0  0  0  0  0  0  0  0  0
    2.5652    0.2657   -1.0483 C   0  0  0  0  0  0  0  0  0  0  0  0
    2.3094    0.7363   -2.4806 C   0  0  0  0  0  0  0  0  0  0  0  0
    1.5107   -0.7550   -0.5672 C   0  0  0  0  0  0  0  0  0  0  0  0
    0.0574   -0.2330   -0.5434 C   0  0  2  0  0  0  0  0  0  0  0  0
   -0.0611    0.9366    0.3377 N   0  0  0  0  0  0  0  0  0  0  0  0
   -1.2439   -1.6073    0.0230 Si  0  0  0  0  0  4  0  0  0  0  0  0
   -2.9762   -0.9349   -0.2773 C   0  0  0  0  0  0  0  0  0  0  0  0
   -1.0000   -3.1600   -1.0032 C   0  0  0  0  0  0  0  0  0  0  0  0
   -0.9706   -1.9724    1.8793 C   0  0  0  0  0  0  0  0  0  0  0  0
    0.0247   -2.8763    2.2907 C   0  0  0  0  0  0  0  0  0  0  0  0
    0.2336   -3.1363    3.6471 C   0  0  0  0  0  0  0  0  0  0  0  0
   -0.5453   -2.5000    4.6099 C   0  0  0  0  0  0  0  0  0  0  0  0
   -1.5349   -1.6019    4.2185 C   0  0  0  0  0  0  0  0  0  0  0  0
   -1.7481   -1.3377    2.8634 C   0  0  0  0  0  0  0  0  0  0  0  0
    4.1808   -0.6614    0.0775 H   0  0  0  0  0  0  0  0  0  0  0  0
    4.0547   -1.2330   -1.5961 H   0  0  0  0  0  0  0  0  0  0  0  0
    4.7298    0.3690   -1.2506 H   0  0  0  0  0  0  0  0  0  0  0  0
    2.5475    1.1423   -0.3895 H   0  0  0  0  0  0  0  0  0  0  0  0
    1.3747    1.3000   -2.5543 H   0  0  0  0  0  0  0  0  0  0  0  0
    2.2538   -0.1106   -3.1728 H   0  0  0  0  0  0  0  0  0  0  0  0
    3.1132    1.3981   -2.8211 H   0  0  0  0  0  0  0  0  0  0  0  0
    1.7929   -1.0957    0.4385 H   0  0  0  0  0  0  0  0  0  0  0  0
    1.5653   -1.6424   -1.2120 H   0  0  0  0  0  0  0  0  0  0  0  0
   -0.2557    0.0481   -1.5544 H   0  0  0  0  0  0  0  0  0  0  0  0
    0.1765    0.6776    1.2978 H   0  0  0  0  0  0  0  0  0  0  0  0
   -1.0174    1.2871    0.3558 H   0  0  0  0  0  0  0  0  0  0  0  0
   -3.1311   -0.7498   -1.3445 H   0  0  0  0  0  0  0  0  0  0  0  0
   -3.1339    0.0065    0.2567 H   0  0  0  0  0  0  0  0  0  0  0  0
   -3.7307   -1.6526    0.0582 H   0  0  0  0  0  0  0  0  0  0  0  0
    0.0048   -3.5712   -0.8713 H   0  0  0  0  0  0  0  0  0  0  0  0
   -1.1401   -2.9409   -2.0660 H   0  0  0  0  0  0  0  0  0  0  0  0
   -1.7236   -3.9285   -0.7154 H   0  0  0  0  0  0  0  0  0  0  0  0
    0.6547   -3.3888    1.5660 H   0  0  0  0  0  0  0  0  0  0  0  0
    1.0069   -3.8368    3.9516 H   0  0  0  0  0  0  0  0  0  0  0  0
   -0.3813   -2.7039    5.6645 H   0  0  0  0  0  0  0  0  0  0  0  0
   -2.1435   -1.1052    4.9698 H   0  0  0  0  0  0  0  0  0  0  0  0
   -2.5297   -0.6295    2.5960 H   0  0  0  0  0  0  0  0  0  0  0  0
  1  2  1  0
  2  3  1  0
  2  4  1  0
  4  5  1  0
  5  6  1  0
  5  7  1  0
  7  8  1  0
  7  9  1  0
  7 10  1  0
 10 11  2  0
 11 12  1  0
 12 13  2  0
 13 14  1  0
 14 15  2  0
 15 10  1  0
  1 16  1  0
  1 17  1  0
  1 18  1  0
  2 19  1  0
  3 20  1  0
  3 21  1  0
  3 22  1  0
  4 23  1  0
  4 24  1  0
  5 25  1  6
  6 26  1  0
  6 27  1  0
  8 28  1  0
  8 29  1  0
  8 30  1  0
  9 31  1  0
  9 32  1  0
  9 33  1  0
 11 34  1  0
 12 35  1  0
 13 36  1  0
 14 37  1  0
 15 38  1  0
M  END
