
     RDKit          3D

 36 35  0  0  0  0  0  0  0  0999 V2000
   -2.4876   -0.7678    0.8515 C   0  0  0  0  0  0  0  0  0  0  0  0
   -1.3131   -1.6653    1.2932 C   0  0  0  0  0  0  0  0  0  0  0  0
   -0.4062   -0.8937    2.2743 C   0  0  0  0  0  0  0  0  0  0  0  0
   -1.8535   -2.9406    1.9710 C   0  0  0  0  0  0  0  0  0  0  0  0
   -0.2053   -2.1985   -0.3751 Si  0  0  0  0  0  4  0  0  0  0  0  0
    1.1931   -3.3081    0.1907 C   0  0  0  0  0  0  0  0  0  0  0  0
   -1.3393   -3.1078   -1.5556 C   0  0  0  0  0  0  0  0  0  0  0  0
    0.4578   -0.6116   -1.1521 C   0  0  0  0  0  0  0  0  0  0  0  0
    0.8892    0.4168   -1.5986 C   0  0  0  0  0  0  0  0  0  0  0  0
    1.4153    1.6785   -2.1357 C   0  0  1  0  0  0  0  0  0  0  0  0
    0.2859    2.4818   -2.6041 N   0  0  0  0  0  0  0  0  0  0  0  0
    2.2047    2.4832   -1.0903 C   0  0  0  0  0  0  0  0  0  0  0  0
    3.5391    1.8528   -0.7109 C   0  0  0  0  0  0  0  0  0  0  0  0
    3.3851    0.6523    0.8130 Br  0  0  0  0  0  0  0  0  0  0  0  0
   -2.1355    0.1440    0.3561 H   0  0  0  0  0  0  0  0  0  0  0  0
   -3.0883   -0.4623    1.7159 H   0  0  0  0  0  0  0  0  0  0  0  0
   -3.1542   -1.2892    0.1557 H   0  0  0  0  0  0  0  0  0  0  0  0
   -0.0086    0.0216    1.8218 H   0  0  0  0  0  0  0  0  0  0  0  0
    0.4447   -1.5015    2.6012 H   0  0  0  0  0  0  0  0  0  0  0  0
   -0.9654   -0.6011    3.1704 H   0  0  0  0  0  0  0  0  0  0  0  0
   -2.4983   -3.5142    1.2961 H   0  0  0  0  0  0  0  0  0  0  0  0
   -2.4469   -2.6869    2.8569 H   0  0  0  0  0  0  0  0  0  0  0  0
   -1.0412   -3.5996    2.2970 H   0  0  0  0  0  0  0  0  0  0  0  0
    0.8053   -4.2159    0.6617 H   0  0  0  0  0  0  0  0  0  0  0  0
    1.8138   -3.6072   -0.6594 H   0  0  0  0  0  0  0  0  0  0  0  0
    1.8339   -2.7947    0.9133 H   0  0  0  0  0  0  0  0  0  0  0  0
   -0.7935   -3.4135   -2.4534 H   0  0  0  0  0  0  0  0  0  0  0  0
   -2.1733   -2.4722   -1.8667 H   0  0  0  0  0  0  0  0  0  0  0  0
   -1.7503   -4.0071   -1.0877 H   0  0  0  0  0  0  0  0  0  0  0  0
    2.0607    1.4637   -2.9957 H   0  0  0  0  0  0  0  0  0  0  0  0
    0.6302    3.2855   -3.1234 H   0  0  0  0  0  0  0  0  0  0  0  0
   -0.2604    1.9248   -3.2597 H   0  0  0  0  0  0  0  0  0  0  0  0
    1.5924    2.6785   -0.2000 H   0  0  0  0  0  0  0  0  0  0  0  0
    2.4340    3.4645   -1.5292 H   0  0  0  0  0  0  0  0  0  0  0  0
    4.2421    2.6240   -0.3814 H   0  0  0  0  0  0  0  0  0  0  0  0
    3.9948    1.2889   -1.5292 H   0  0  0  0  0  0  0  0  0  0  0  0
  1  2  1  0
  2  3  1  0
  2  4  1  0
  2  5  1  0
  5  6  1  0
  5  7  1  0
  5  8  1  0
  8  9  3  0
  9 10  1  0
 10 11  1  0
 10 12  1  0
 12 13  1  0
 13 14  1  0
  1 15  1  0
  1 16  1  0
  1 17  1  0
  3 18  1  0
  3 19  1  0
  3 20  1  0
  4 21  1  0
  4 22  1  0
  4 23  1  0
  6 24  1  0
  6 25  1  0
  6 26  1  0
  7 27  1  0
  7 28  1  0
  7 29  1  0
 10 30  1  6
 11 31  1  0
 11 32  1  0
 12 33  1  0
 12 34  1  0
 13 35  1  0
 13 36  1  0
M  END
