
     RDKit          3D

 39 38  0  0  0  0  0  0  0  0999 V2000
   -3.1551   -1.6195   -1.8499 C   0  0  0  0  0  0  0  0  0  0  0  0
   -2.5793   -1.2072   -0.5043 C   0  0  0  0  0  0  0  0  0  0  0  0
   -1.6716   -2.2704    0.1299 C   0  0  0  0  0  0  0  0  0  0  0  0
   -0.4265   -2.6385   -0.6929 C   0  0  2  0  0  0  0  0  0  0  0  0
    0.3118   -3.6945    0.0014 N   0  0  0  0  0  0  0  0  0  0  0  0
    0.4680   -1.4838   -0.8758 C   0  0  0  0  0  0  0  0  0  0  0  0
    1.1878   -0.5335   -1.0236 C   0  0  0  0  0  0  0  0  0  0  0  0
    2.2700    0.9973   -1.2551 Si  0  0  0  0  0  4  0  0  0  0  0  0
    3.5014    1.1750    0.1430 C   0  0  0  0  0  0  0  0  0  0  0  0
    3.1377    0.9706   -2.9130 C   0  0  0  0  0  0  0  0  0  0  0  0
    1.0139    2.6488   -1.2162 C   0  0  0  0  0  0  0  0  0  0  0  0
   -0.0174    2.5224   -2.3567 C   0  0  0  0  0  0  0  0  0  0  0  0
    0.2870    2.6950    0.1439 C   0  0  0  0  0  0  0  0  0  0  0  0
    1.8543    3.9275   -1.4067 C   0  0  0  0  0  0  0  0  0  0  0  0
   -3.8779   -0.8724   -2.1933 H   0  0  0  0  0  0  0  0  0  0  0  0
   -2.3753   -1.6984   -2.6130 H   0  0  0  0  0  0  0  0  0  0  0  0
   -3.6710   -2.5822   -1.7789 H   0  0  0  0  0  0  0  0  0  0  0  0
   -2.0407   -0.2592   -0.6134 H   0  0  0  0  0  0  0  0  0  0  0  0
   -3.4107   -1.0127    0.1841 H   0  0  0  0  0  0  0  0  0  0  0  0
   -2.2698   -3.1749    0.3051 H   0  0  0  0  0  0  0  0  0  0  0  0
   -1.3692   -1.9037    1.1207 H   0  0  0  0  0  0  0  0  0  0  0  0
   -0.7283   -3.0312   -1.6693 H   0  0  0  0  0  0  0  0  0  0  0  0
    0.6381   -3.3265    0.8942 H   0  0  0  0  0  0  0  0  0  0  0  0
    1.1543   -3.8986   -0.5347 H   0  0  0  0  0  0  0  0  0  0  0  0
    4.0984    2.0839    0.0250 H   0  0  0  0  0  0  0  0  0  0  0  0
    4.1861    0.3217    0.1628 H   0  0  0  0  0  0  0  0  0  0  0  0
    2.9932    1.2230    1.1105 H   0  0  0  0  0  0  0  0  0  0  0  0
    3.7332    1.8767   -3.0573 H   0  0  0  0  0  0  0  0  0  0  0  0
    2.4168    0.9011   -3.7327 H   0  0  0  0  0  0  0  0  0  0  0  0
    3.8106    0.1104   -2.9807 H   0  0  0  0  0  0  0  0  0  0  0  0
   -0.6266    1.6176   -2.2528 H   0  0  0  0  0  0  0  0  0  0  0  0
   -0.6996    3.3803   -2.3588 H   0  0  0  0  0  0  0  0  0  0  0  0
    0.4688    2.4863   -3.3379 H   0  0  0  0  0  0  0  0  0  0  0  0
   -0.3899    3.5557    0.1922 H   0  0  0  0  0  0  0  0  0  0  0  0
    0.9938    2.7854    0.9761 H   0  0  0  0  0  0  0  0  0  0  0  0
   -0.3133    1.7940    0.3125 H   0  0  0  0  0  0  0  0  0  0  0  0
    2.3857    3.9222   -2.3648 H   0  0  0  0  0  0  0  0  0  0  0  0
    1.2148    4.8175   -1.3897 H   0  0  0  0  0  0  0  0  0  0  0  0
    2.5998    4.0426   -0.6121 H   0  0  0  0  0  0  0  0  0  0  0  0
  1  2  1  0
  2  3  1  0
  3  4  1  0
  4  5  1  0
  4  6  1  0
  6  7  3  0
  7  8  1  0
  8  9  1  0
  8 10  1  0
  8 11  1  0
 11 12  1  0
 11 13  1  0
 11 14  1  0
  1 15  1  0
  1 16  1  0
  1 17  1  0
  2 18  1  0
  2 19  1  0
  3 20  1  0
  3 21  1  0
  4 22  1  6
  5 23  1  0
  5 24  1  0
  9 25  1  0
  9 26  1  0
  9 27  1  0
 10 28  1  0
 10 29  1  0
 10 30  1  0
 12 31  1  0
 12 32  1  0
 12 33  1  0
 13 34  1  0
 13 35  1  0
 13 36  1  0
 14 37  1  0
 14 38  1  0
 14 39  1  0
M  END
