
     RDKit          3D

 42 41  0  0  0  0  0  0  0  0999 V2000
   -2.6481   -0.6813    1.1103 C   0  0  0  0  0  0  0  0  0  0  0  0
   -3.2324    0.4080    0.1874 C   0  0  0  0  0  0  0  0  0  0  0  0
   -2.9933    1.7853    0.8455 C   0  0  0  0  0  0  0  0  0  0  0  0
   -4.7598    0.1945    0.0968 C   0  0  0  0  0  0  0  0  0  0  0  0
   -2.6088    0.3843   -1.2485 C   0  0  2  0  0  0  0  0  0  0  0  0
   -2.8600   -0.8743   -1.9554 N   0  0  0  0  0  0  0  0  0  0  0  0
   -1.1508    0.6187   -1.2418 C   0  0  0  0  0  0  0  0  0  0  0  0
    0.0370    0.7976   -1.2211 C   0  0  0  0  0  0  0  0  0  0  0  0
    1.9029    1.0697   -1.1173 Si  0  0  0  0  0  4  0  0  0  0  0  0
    2.8053    0.1254   -2.4583 C   0  0  0  0  0  0  0  0  0  0  0  0
    2.3279    2.8919   -1.1793 C   0  0  0  0  0  0  0  0  0  0  0  0
    2.5273    0.3283    0.7193 C   0  0  0  0  0  0  0  0  0  0  0  0
    1.7918    1.0878    1.8437 C   0  0  0  0  0  0  0  0  0  0  0  0
    4.0495    0.5327    0.8548 C   0  0  0  0  0  0  0  0  0  0  0  0
    2.1890   -1.1754    0.7946 C   0  0  0  0  0  0  0  0  0  0  0  0
   -3.0963   -0.6272    2.1100 H   0  0  0  0  0  0  0  0  0  0  0  0
   -1.5665   -0.5687    1.2344 H   0  0  0  0  0  0  0  0  0  0  0  0
   -2.8413   -1.6879    0.7255 H   0  0  0  0  0  0  0  0  0  0  0  0
   -3.3831    2.5956    0.2180 H   0  0  0  0  0  0  0  0  0  0  0  0
   -3.4940    1.8502    1.8196 H   0  0  0  0  0  0  0  0  0  0  0  0
   -1.9288    1.9740    1.0174 H   0  0  0  0  0  0  0  0  0  0  0  0
   -5.2304    0.2808    1.0840 H   0  0  0  0  0  0  0  0  0  0  0  0
   -5.2238    0.9417   -0.5578 H   0  0  0  0  0  0  0  0  0  0  0  0
   -5.0084   -0.7983   -0.2949 H   0  0  0  0  0  0  0  0  0  0  0  0
   -3.0777    1.1831   -1.8376 H   0  0  0  0  0  0  0  0  0  0  0  0
   -2.4502   -0.8028   -2.8859 H   0  0  0  0  0  0  0  0  0  0  0  0
   -2.3414   -1.6169   -1.4890 H   0  0  0  0  0  0  0  0  0  0  0  0
    3.8866    0.2716   -2.3780 H   0  0  0  0  0  0  0  0  0  0  0  0
    2.5995   -0.9477   -2.3931 H   0  0  0  0  0  0  0  0  0  0  0  0
    2.4917    0.4705   -3.4486 H   0  0  0  0  0  0  0  0  0  0  0  0
    3.4058    3.0458   -1.0748 H   0  0  0  0  0  0  0  0  0  0  0  0
    2.0172    3.3261   -2.1345 H   0  0  0  0  0  0  0  0  0  0  0  0
    1.8245    3.4421   -0.3785 H   0  0  0  0  0  0  0  0  0  0  0  0
    2.0119    2.1612    1.8167 H   0  0  0  0  0  0  0  0  0  0  0  0
    2.0972    0.7135    2.8278 H   0  0  0  0  0  0  0  0  0  0  0  0
    0.7052    0.9682    1.7691 H   0  0  0  0  0  0  0  0  0  0  0  0
    4.4082    0.1475    1.8160 H   0  0  0  0  0  0  0  0  0  0  0  0
    4.3205    1.5931    0.8037 H   0  0  0  0  0  0  0  0  0  0  0  0
    4.5987    0.0100    0.0644 H   0  0  0  0  0  0  0  0  0  0  0  0
    2.6974   -1.7430    0.0078 H   0  0  0  0  0  0  0  0  0  0  0  0
    2.5012   -1.5954    1.7570 H   0  0  0  0  0  0  0  0  0  0  0  0
    1.1129   -1.3540    0.6917 H   0  0  0  0  0  0  0  0  0  0  0  0
  1  2  1  0
  2  3  1  0
  2  4  1  0
  2  5  1  0
  5  6  1  0
  5  7  1  0
  7  8  3  0
  8  9  1  0
  9 10  1  0
  9 11  1  0
  9 12  1  0
 12 13  1  0
 12 14  1  0
 12 15  1  0
  1 16  1  0
  1 17  1  0
  1 18  1  0
  3 19  1  0
  3 20  1  0
  3 21  1  0
  4 22  1  0
  4 23  1  0
  4 24  1  0
  5 25  1  6
  6 26  1  0
  6 27  1  0
 10 28  1  0
 10 29  1  0
 10 30  1  0
 11 31  1  0
 11 32  1  0
 11 33  1  0
 13 34  1  0
 13 35  1  0
 13 36  1  0
 14 37  1  0
 14 38  1  0
 14 39  1  0
 15 40  1  0
 15 41  1  0
 15 42  1  0
M  END
