
     RDKit          3D

 26 25  0  0  0  0  0  0  0  0999 V2000
    1.7381   -1.1094    1.8522 C   0  0  0  0  0  0  0  0  0  0  0  0
    0.3347    0.0996    1.5756 Si  0  0  0  0  0  4  0  0  0  0  0  0
    0.4912    1.5336    2.7800 C   0  0  0  0  0  0  0  0  0  0  0  0
   -1.2978   -0.7922    1.8840 C   0  0  0  0  0  0  0  0  0  0  0  0
    0.3325    0.7804   -0.2536 C   0  0  1  0  0  0  0  0  0  0  0  0
   -0.8514    1.6476   -0.4146 N   0  0  0  0  0  0  0  0  0  0  0  0
    1.5957    1.5826   -0.6555 C   0  0  0  0  0  0  0  0  0  0  0  0
    2.8666    0.8299   -0.9646 C   0  0  0  0  0  0  0  0  0  0  0  0
    2.9928   -0.4526   -1.3285 C   0  0  0  0  0  0  0  0  0  0  0  0
    1.6757   -1.5429    2.8550 H   0  0  0  0  0  0  0  0  0  0  0  0
    2.7088   -0.6138    1.7627 H   0  0  0  0  0  0  0  0  0  0  0  0
    1.6962   -1.9280    1.1280 H   0  0  0  0  0  0  0  0  0  0  0  0
   -0.3309    2.2433    2.6506 H   0  0  0  0  0  0  0  0  0  0  0  0
    0.4682    1.1698    3.8116 H   0  0  0  0  0  0  0  0  0  0  0  0
    1.4340    2.0669    2.6280 H   0  0  0  0  0  0  0  0  0  0  0  0
   -2.1404   -0.0984    1.8141 H   0  0  0  0  0  0  0  0  0  0  0  0
   -1.3045   -1.2385    2.8828 H   0  0  0  0  0  0  0  0  0  0  0  0
   -1.4426   -1.5893    1.1491 H   0  0  0  0  0  0  0  0  0  0  0  0
    0.1956   -0.0791   -0.9179 H   0  0  0  0  0  0  0  0  0  0  0  0
   -0.8096    2.4456    0.2183 H   0  0  0  0  0  0  0  0  0  0  0  0
   -1.7088    1.1370   -0.2080 H   0  0  0  0  0  0  0  0  0  0  0  0
    1.3737    2.1727   -1.5560 H   0  0  0  0  0  0  0  0  0  0  0  0
    1.8270    2.3152    0.1295 H   0  0  0  0  0  0  0  0  0  0  0  0
    3.7753    1.4289   -0.9059 H   0  0  0  0  0  0  0  0  0  0  0  0
    2.1439   -1.1166   -1.4461 H   0  0  0  0  0  0  0  0  0  0  0  0
    3.9737   -0.8698   -1.5385 H   0  0  0  0  0  0  0  0  0  0  0  0
  1  2  1  0
  2  3  1  0
  2  4  1  0
  2  5  1  0
  5  6  1  0
  5  7  1  0
  7  8  1  0
  8  9  2  3
  1 10  1  0
  1 11  1  0
  1 12  1  0
  3 13  1  0
  3 14  1  0
  3 15  1  0
  4 16  1  0
  4 17  1  0
  4 18  1  0
  5 19  1  6
  6 20  1  0
  6 21  1  0
  7 22  1  0
  7 23  1  0
  8 24  1  0
  9 25  1  0
  9 26  1  0
M  END
