
     RDKit          3D

 29 29  0  0  0  0  0  0  0  0999 V2000
   -2.2942    2.4513    1.6725 N   0  0  0  0  0  0  0  0  0  0  0  0
   -2.1418    1.4388    0.6131 C   0  0  2  0  0  0  0  0  0  0  0  0
   -0.7952    0.8052    0.7987 C   0  0  0  0  0  0  0  0  0  0  0  0
   -0.6083   -0.5103    0.9991 C   0  0  0  0  0  0  0  0  0  0  0  0
    0.7118   -1.1281    1.1780 C   0  0  0  0  0  0  0  0  0  0  0  0
    0.8624   -2.1489    2.1250 C   0  0  0  0  0  0  0  0  0  0  0  0
    2.0970   -2.7792    2.3004 C   0  0  0  0  0  0  0  0  0  0  0  0
    3.1894   -2.4026    1.5218 C   0  0  0  0  0  0  0  0  0  0  0  0
    3.0473   -1.3997    0.5651 C   0  0  0  0  0  0  0  0  0  0  0  0
    1.8130   -0.7686    0.3903 C   0  0  0  0  0  0  0  0  0  0  0  0
   -2.3426    2.1082   -0.7821 C   0  0  2  0  0  0  0  0  0  0  0  0
   -3.6083    2.9402   -0.7630 N   0  0  0  0  0  0  0  0  0  0  0  0
   -2.2882    1.0480   -1.9071 C   0  0  0  0  0  0  0  0  0  0  0  0
   -1.0734    0.4820   -2.0426 F   0  0  0  0  0  0  0  0  0  0  0  0
   -2.5935    1.6245   -3.0981 F   0  0  0  0  0  0  0  0  0  0  0  0
   -3.1961    0.0665   -1.6993 F   0  0  0  0  0  0  0  0  0  0  0  0
   -3.0371    3.0900    1.3691 H   0  0  0  0  0  0  0  0  0  0  0  0
   -2.6239    2.0006    2.5232 H   0  0  0  0  0  0  0  0  0  0  0  0
   -2.9390    0.6966    0.7535 H   0  0  0  0  0  0  0  0  0  0  0  0
    0.0592    1.4802    0.7800 H   0  0  0  0  0  0  0  0  0  0  0  0
   -1.4568   -1.1882    1.0551 H   0  0  0  0  0  0  0  0  0  0  0  0
    0.0214   -2.4556    2.7424 H   0  0  0  0  0  0  0  0  0  0  0  0
    2.2044   -3.5640    3.0444 H   0  0  0  0  0  0  0  0  0  0  0  0
    4.1497   -2.8932    1.6573 H   0  0  0  0  0  0  0  0  0  0  0  0
    3.8952   -1.1104   -0.0501 H   0  0  0  0  0  0  0  0  0  0  0  0
    1.7183   -0.0022   -0.3751 H   0  0  0  0  0  0  0  0  0  0  0  0
   -1.5241    2.8183   -0.9586 H   0  0  0  0  0  0  0  0  0  0  0  0
   -4.4063    2.3023   -0.7107 H   0  0  0  0  0  0  0  0  0  0  0  0
   -3.6938    3.3907   -1.6784 H   0  0  0  0  0  0  0  0  0  0  0  0
  1  2  1  0
  2  3  1  0
  3  4  2  0
  4  5  1  0
  5  6  2  0
  6  7  1  0
  7  8  2  0
  8  9  1  0
  9 10  2  0
  2 11  1  0
 11 12  1  0
 11 13  1  0
 13 14  1  0
 13 15  1  0
 13 16  1  0
 10  5  1  0
  1 17  1  0
  1 18  1  0
  2 19  1  1
  3 20  1  0
  4 21  1  0
  6 22  1  0
  7 23  1  0
  8 24  1  0
  9 25  1  0
 10 26  1  0
 11 27  1  6
 12 28  1  0
 12 29  1  0
M  END
