
     RDKit          3D

 33 33  0  0  0  0  0  0  0  0999 V2000
    1.2641    2.2632   -2.7763 C   0  0  0  0  0  0  0  0  0  0  0  0
   -0.1636    1.8086   -2.5160 C   0  0  0  0  0  0  0  0  0  0  0  0
   -0.5230    1.7394   -1.0312 C   0  0  0  0  0  0  0  0  0  0  0  0
    0.2993    0.7788   -0.1571 C   0  0  0  0  0  0  0  0  0  0  0  0
    0.1779   -0.7367   -0.4225 C   0  0  2  0  0  0  0  0  0  0  0  0
    0.8084   -1.1246   -1.6828 N   0  0  0  0  0  0  0  0  0  0  0  0
   -1.2475   -1.2135   -0.4427 C   0  0  0  0  0  0  0  0  0  0  0  0
   -1.8747   -1.9528    0.4873 C   0  0  0  0  0  0  0  0  0  0  0  0
   -1.2668   -2.4182    1.7333 C   0  0  0  0  0  0  0  0  0  0  0  0
   -1.0844   -1.5411    2.8079 C   0  0  0  0  0  0  0  0  0  0  0  0
   -0.4988   -1.9932    3.9918 C   0  0  0  0  0  0  0  0  0  0  0  0
   -0.0949   -3.3229    4.1068 C   0  0  0  0  0  0  0  0  0  0  0  0
   -0.2768   -4.2019    3.0396 C   0  0  0  0  0  0  0  0  0  0  0  0
   -0.8623   -3.7512    1.8548 C   0  0  0  0  0  0  0  0  0  0  0  0
    1.9944    1.5392   -2.4051 H   0  0  0  0  0  0  0  0  0  0  0  0
    1.4302    2.3796   -3.8521 H   0  0  0  0  0  0  0  0  0  0  0  0
    1.4613    3.2279   -2.2982 H   0  0  0  0  0  0  0  0  0  0  0  0
   -0.8426    2.5241   -2.9965 H   0  0  0  0  0  0  0  0  0  0  0  0
   -0.3453    0.8472   -3.0057 H   0  0  0  0  0  0  0  0  0  0  0  0
   -0.4136    2.7471   -0.6086 H   0  0  0  0  0  0  0  0  0  0  0  0
   -1.5886    1.4985   -0.9390 H   0  0  0  0  0  0  0  0  0  0  0  0
   -0.0094    0.9553    0.8829 H   0  0  0  0  0  0  0  0  0  0  0  0
    1.3571    1.0689   -0.1924 H   0  0  0  0  0  0  0  0  0  0  0  0
    0.7382   -1.2440    0.3716 H   0  0  0  0  0  0  0  0  0  0  0  0
    0.8210   -2.1427   -1.7342 H   0  0  0  0  0  0  0  0  0  0  0  0
    1.7847   -0.8357   -1.6666 H   0  0  0  0  0  0  0  0  0  0  0  0
   -1.8216   -0.9323   -1.3250 H   0  0  0  0  0  0  0  0  0  0  0  0
   -2.9096   -2.2497    0.3348 H   0  0  0  0  0  0  0  0  0  0  0  0
   -1.3992   -0.5033    2.7290 H   0  0  0  0  0  0  0  0  0  0  0  0
   -0.3597   -1.3084    4.8242 H   0  0  0  0  0  0  0  0  0  0  0  0
    0.3601   -3.6748    5.0291 H   0  0  0  0  0  0  0  0  0  0  0  0
    0.0369   -5.2385    3.1294 H   0  0  0  0  0  0  0  0  0  0  0  0
   -0.9976   -4.4438    1.0276 H   0  0  0  0  0  0  0  0  0  0  0  0
  1  2  1  0
  2  3  1  0
  3  4  1  0
  4  5  1  0
  5  6  1  0
  5  7  1  0
  7  8  2  3
  8  9  1  0
  9 10  2  0
 10 11  1  0
 11 12  2  0
 12 13  1  0
 13 14  2  0
 14  9  1  0
  1 15  1  0
  1 16  1  0
  1 17  1  0
  2 18  1  0
  2 19  1  0
  3 20  1  0
  3 21  1  0
  4 22  1  0
  4 23  1  0
  5 24  1  1
  6 25  1  0
  6 26  1  0
  7 27  1  0
  8 28  1  0
 10 29  1  0
 11 30  1  0
 12 31  1  0
 13 32  1  0
 14 33  1  0
M  END
