
     RDKit          3D

 15 14  0  0  0  0  0  0  0  0999 V2000
    2.1979    2.1924   -1.3904 C   0  0  0  0  0  0  0  0  0  0  0  0
    0.8350    1.5127   -1.4284 C   0  0  0  0  0  0  0  0  0  0  0  0
    0.4580    0.8639   -0.0897 C   0  0  1  0  0  0  0  0  0  0  0  0
   -0.9374    0.3676   -0.1353 N   0  0  0  0  0  0  0  0  0  0  0  0
    1.4442   -0.2600    0.3049 C   0  0  0  0  0  0  0  0  0  0  0  0
    1.2569   -1.7257   -0.6297 Cl  0  0  0  0  0  0  0  0  0  0  0  0
    2.3104   -0.0762    1.1592 O   0  0  0  0  0  0  0  0  0  0  0  0
    2.2407    2.9415   -0.5933 H   0  0  0  0  0  0  0  0  0  0  0  0
    3.0024    1.4687   -1.2292 H   0  0  0  0  0  0  0  0  0  0  0  0
    2.3915    2.6989   -2.3414 H   0  0  0  0  0  0  0  0  0  0  0  0
    0.0853    2.2696   -1.6919 H   0  0  0  0  0  0  0  0  0  0  0  0
    0.8325    0.7713   -2.2365 H   0  0  0  0  0  0  0  0  0  0  0  0
    0.5004    1.6168    0.7068 H   0  0  0  0  0  0  0  0  0  0  0  0
   -1.0319   -0.3191   -0.8857 H   0  0  0  0  0  0  0  0  0  0  0  0
   -1.5621    1.1365   -0.3786 H   0  0  0  0  0  0  0  0  0  0  0  0
  1  2  1  0
  2  3  1  0
  3  4  1  0
  3  5  1  0
  5  6  1  0
  5  7  2  0
  1  8  1  0
  1  9  1  0
  1 10  1  0
  2 11  1  0
  2 12  1  0
  3 13  1  1
  4 14  1  0
  4 15  1  0
M  END
