
     RDKit          3D

 28 28  0  0  0  0  0  0  0  0999 V2000
   -2.0763    2.2338    0.9319 C   0  0  0  0  0  0  0  0  0  0  0  0
   -1.2515    1.6277   -0.2152 C   0  0  1  0  0  0  0  0  0  0  0  0
    0.1755    1.9490    0.0556 N   0  0  0  0  0  0  0  0  0  0  0  0
   -1.4913    0.0955   -0.2662 C   0  0  0  0  0  0  0  0  0  0  0  0
   -0.6291   -0.6707   -1.2525 C   0  0  0  0  0  0  0  0  0  0  0  0
   -1.0660   -0.8894   -2.5657 C   0  0  0  0  0  0  0  0  0  0  0  0
   -0.2668   -1.5902   -3.4727 C   0  0  0  0  0  0  0  0  0  0  0  0
    0.9790   -2.0833   -3.0753 C   0  0  0  0  0  0  0  0  0  0  0  0
    1.4211   -1.8727   -1.7662 C   0  0  0  0  0  0  0  0  0  0  0  0
    0.6208   -1.1716   -0.8608 C   0  0  0  0  0  0  0  0  0  0  0  0
    1.8003   -2.8004   -4.0058 C   0  0  0  0  0  0  0  0  0  0  0  0
    2.4698   -3.3764   -4.7590 N   0  0  0  0  0  0  0  0  0  0  0  0
   -1.7393    2.3024   -1.5274 C   0  0  0  0  0  0  0  0  0  0  0  0
   -1.1077    3.4630   -1.8880 N   0  0  0  0  0  0  0  0  0  0  0  0
   -2.6975    1.9100   -2.1878 O   0  0  0  0  0  0  0  0  0  0  0  0
   -1.9596    3.3231    0.9839 H   0  0  0  0  0  0  0  0  0  0  0  0
   -1.7822    1.8172    1.9021 H   0  0  0  0  0  0  0  0  0  0  0  0
   -3.1455    2.0341    0.7932 H   0  0  0  0  0  0  0  0  0  0  0  0
    0.7374    1.6892   -0.7544 H   0  0  0  0  0  0  0  0  0  0  0  0
    0.2858    2.9441    0.2314 H   0  0  0  0  0  0  0  0  0  0  0  0
   -2.5459   -0.1146   -0.4921 H   0  0  0  0  0  0  0  0  0  0  0  0
   -1.3250   -0.3355    0.7314 H   0  0  0  0  0  0  0  0  0  0  0  0
   -2.0365   -0.5173   -2.8925 H   0  0  0  0  0  0  0  0  0  0  0  0
   -0.6274   -1.7482   -4.4875 H   0  0  0  0  0  0  0  0  0  0  0  0
    2.3875   -2.2530   -1.4405 H   0  0  0  0  0  0  0  0  0  0  0  0
    0.9776   -1.0143    0.1561 H   0  0  0  0  0  0  0  0  0  0  0  0
   -0.1520    3.6239   -1.6085 H   0  0  0  0  0  0  0  0  0  0  0  0
   -1.3892    3.8439   -2.7832 H   0  0  0  0  0  0  0  0  0  0  0  0
  1  2  1  0
  2  3  1  1
  2  4  1  0
  4  5  1  0
  5  6  2  0
  6  7  1  0
  7  8  2  0
  8  9  1  0
  9 10  2  0
  8 11  1  0
 11 12  3  0
  2 13  1  0
 13 14  1  0
 13 15  2  0
 10  5  1  0
  1 16  1  0
  1 17  1  0
  1 18  1  0
  3 19  1  0
  3 20  1  0
  4 21  1  0
  4 22  1  0
  6 23  1  0
  7 24  1  0
  9 25  1  0
 10 26  1  0
 14 27  1  0
 14 28  1  0
M  END
