
     RDKit          3D

 36 36  0  0  0  0  0  0  0  0999 V2000
    2.6840   -4.5875    0.7910 C   0  0  0  0  0  0  0  0  0  0  0  0
    1.5328   -4.0296   -0.4898 S   0  0  0  0  0  0  0  0  0  0  0  0
    2.0211   -2.2722   -0.5881 C   0  0  0  0  0  0  0  0  0  0  0  0
    1.5318   -1.4790    0.6239 C   0  0  0  0  0  0  0  0  0  0  0  0
    1.7705    0.0282    0.4678 C   0  0  2  0  0  0  0  0  0  0  0  0
    3.2239    0.2923    0.3438 N   0  0  0  0  0  0  0  0  0  0  0  0
    1.2435    0.8003    1.6964 C   0  0  0  0  0  0  0  0  0  0  0  0
    1.9539    0.9196    2.7045 O   0  0  0  0  0  0  0  0  0  0  0  0
   -0.1519    1.4407    1.6676 C   0  0  0  0  0  0  0  0  0  0  0  0
   -0.3837    2.5485    0.6186 C   0  0  0  0  0  0  0  0  0  0  0  0
    0.8304    3.3612    0.1971 C   0  0  0  0  0  0  0  0  0  0  0  0
   -1.1120    1.8705   -0.5523 C   0  0  0  0  0  0  0  0  0  0  0  0
   -1.7540    0.6947    0.1129 C   0  0  0  0  0  0  0  0  0  0  0  0
   -1.2496    0.4687    1.3341 C   0  0  0  0  0  0  0  0  0  0  0  0
   -1.7001   -0.5598    2.3130 C   0  0  0  0  0  0  0  0  0  0  0  0
    2.4463   -4.1279    1.7531 H   0  0  0  0  0  0  0  0  0  0  0  0
    2.5962   -5.6719    0.8999 H   0  0  0  0  0  0  0  0  0  0  0  0
    3.7138   -4.3512    0.5109 H   0  0  0  0  0  0  0  0  0  0  0  0
    1.5712   -1.8669   -1.5008 H   0  0  0  0  0  0  0  0  0  0  0  0
    3.1077   -2.2136   -0.7046 H   0  0  0  0  0  0  0  0  0  0  0  0
    0.4605   -1.6607    0.7543 H   0  0  0  0  0  0  0  0  0  0  0  0
    2.0190   -1.8353    1.5403 H   0  0  0  0  0  0  0  0  0  0  0  0
    1.2913    0.3956   -0.4406 H   0  0  0  0  0  0  0  0  0  0  0  0
    3.3705    1.2980    0.2446 H   0  0  0  0  0  0  0  0  0  0  0  0
    3.6474    0.0777    1.2541 H   0  0  0  0  0  0  0  0  0  0  0  0
   -0.3298    1.8659    2.6644 H   0  0  0  0  0  0  0  0  0  0  0  0
   -1.0934    3.2630    1.0657 H   0  0  0  0  0  0  0  0  0  0  0  0
    1.3432    3.7758    1.0710 H   0  0  0  0  0  0  0  0  0  0  0  0
    0.5227    4.1981   -0.4391 H   0  0  0  0  0  0  0  0  0  0  0  0
    1.5484    2.7687   -0.3752 H   0  0  0  0  0  0  0  0  0  0  0  0
   -1.8625    2.5414   -0.9823 H   0  0  0  0  0  0  0  0  0  0  0  0
   -0.4384    1.5434   -1.3498 H   0  0  0  0  0  0  0  0  0  0  0  0
   -2.5515    0.1221   -0.3437 H   0  0  0  0  0  0  0  0  0  0  0  0
   -2.1175   -0.0766    3.2020 H   0  0  0  0  0  0  0  0  0  0  0  0
   -0.8666   -1.1936    2.6286 H   0  0  0  0  0  0  0  0  0  0  0  0
   -2.4729   -1.2075    1.8866 H   0  0  0  0  0  0  0  0  0  0  0  0
  1  2  1  0
  2  3  1  0
  3  4  1  0
  4  5  1  0
  5  6  1  0
  5  7  1  0
  7  8  2  0
  7  9  1  0
  9 10  1  0
 10 11  1  0
 10 12  1  0
 12 13  1  0
 13 14  2  0
 14 15  1  0
 14  9  1  0
  1 16  1  0
  1 17  1  0
  1 18  1  0
  3 19  1  0
  3 20  1  0
  4 21  1  0
  4 22  1  0
  5 23  1  6
  6 24  1  0
  6 25  1  0
  9 26  1  0
 10 27  1  0
 11 28  1  0
 11 29  1  0
 11 30  1  0
 12 31  1  0
 12 32  1  0
 13 33  1  0
 15 34  1  0
 15 35  1  0
 15 36  1  0
M  END
