
     RDKit          3D

 40 41  0  0  0  0  0  0  0  0999 V2000
   -0.1494   -2.1335    0.4336 N   0  0  0  0  0  0  0  0  0  0  0  0
   -0.0301   -2.1248   -1.0168 C   0  0  1  0  0  0  0  0  0  0  0  0
   -1.1258   -1.2561   -1.6739 C   0  0  0  0  0  0  0  0  0  0  0  0
   -2.5638   -1.7172   -1.3861 C   0  0  0  0  0  0  0  0  0  0  0  0
   -3.1981   -1.0381   -0.1952 C   0  0  0  0  0  0  0  0  0  0  0  0
   -3.6254    0.2948   -0.2823 C   0  0  0  0  0  0  0  0  0  0  0  0
   -4.2112    0.9254    0.8167 C   0  0  0  0  0  0  0  0  0  0  0  0
   -4.3762    0.2308    2.0133 C   0  0  0  0  0  0  0  0  0  0  0  0
   -3.9564   -1.0942    2.1111 C   0  0  0  0  0  0  0  0  0  0  0  0
   -3.3717   -1.7260    1.0122 C   0  0  0  0  0  0  0  0  0  0  0  0
    1.3861   -1.7419   -1.3653 C   0  0  0  0  0  0  0  0  0  0  0  0
    1.7917   -0.6538   -2.0422 C   0  0  0  0  0  0  0  0  0  0  0  0
    3.4803   -0.3905   -2.3568 S   0  0  0  0  0  6  0  0  0  0  0  0
    3.6034    0.5756   -3.4318 O   0  0  0  0  0  0  0  0  0  0  0  0
    4.1842   -1.6579   -2.4203 O   0  0  0  0  0  0  0  0  0  0  0  0
    4.0082    0.4316   -0.8635 C   0  0  0  0  0  0  0  0  0  0  0  0
    3.8796    1.8212   -0.7601 C   0  0  0  0  0  0  0  0  0  0  0  0
    4.3065    2.4651    0.4032 C   0  0  0  0  0  0  0  0  0  0  0  0
    4.8653    1.7217    1.4440 C   0  0  0  0  0  0  0  0  0  0  0  0
    5.3887    2.5192    2.8756 Cl  0  0  0  0  0  0  0  0  0  0  0  0
    5.0080    0.3377    1.3318 C   0  0  0  0  0  0  0  0  0  0  0  0
    4.5836   -0.3133    0.1716 C   0  0  0  0  0  0  0  0  0  0  0  0
    0.6493   -2.5850    0.8713 H   0  0  0  0  0  0  0  0  0  0  0  0
   -0.2072   -1.1823    0.7943 H   0  0  0  0  0  0  0  0  0  0  0  0
   -0.1726   -3.1548   -1.3673 H   0  0  0  0  0  0  0  0  0  0  0  0
   -0.9817   -1.3138   -2.7619 H   0  0  0  0  0  0  0  0  0  0  0  0
   -1.0006   -0.2007   -1.3997 H   0  0  0  0  0  0  0  0  0  0  0  0
   -3.1877   -1.4846   -2.2597 H   0  0  0  0  0  0  0  0  0  0  0  0
   -2.6094   -2.8080   -1.2798 H   0  0  0  0  0  0  0  0  0  0  0  0
   -3.5079    0.8484   -1.2109 H   0  0  0  0  0  0  0  0  0  0  0  0
   -4.5415    1.9577    0.7382 H   0  0  0  0  0  0  0  0  0  0  0  0
   -4.8330    0.7208    2.8688 H   0  0  0  0  0  0  0  0  0  0  0  0
   -4.0824   -1.6379    3.0435 H   0  0  0  0  0  0  0  0  0  0  0  0
   -3.0401   -2.7580    1.1065 H   0  0  0  0  0  0  0  0  0  0  0  0
    2.1369   -2.4647   -1.0414 H   0  0  0  0  0  0  0  0  0  0  0  0
    1.1181    0.1015   -2.4196 H   0  0  0  0  0  0  0  0  0  0  0  0
    3.4596    2.4064   -1.5756 H   0  0  0  0  0  0  0  0  0  0  0  0
    4.2085    3.5446    0.4900 H   0  0  0  0  0  0  0  0  0  0  0  0
    5.4551   -0.2359    2.1402 H   0  0  0  0  0  0  0  0  0  0  0  0
    4.7106   -1.3902    0.0823 H   0  0  0  0  0  0  0  0  0  0  0  0
  1  2  1  0
  2  3  1  0
  3  4  1  0
  4  5  1  0
  5  6  2  0
  6  7  1  0
  7  8  2  0
  8  9  1  0
  9 10  2  0
  2 11  1  0
 11 12  2  0
 12 13  1  0
 13 14  2  0
 13 15  2  0
 13 16  1  0
 16 17  2  0
 17 18  1  0
 18 19  2  0
 19 20  1  0
 19 21  1  0
 21 22  2  0
 10  5  1  0
 22 16  1  0
  1 23  1  0
  1 24  1  0
  2 25  1  6
  3 26  1  0
  3 27  1  0
  4 28  1  0
  4 29  1  0
  6 30  1  0
  7 31  1  0
  8 32  1  0
  9 33  1  0
 10 34  1  0
 11 35  1  0
 12 36  1  0
 17 37  1  0
 18 38  1  0
 21 39  1  0
 22 40  1  0
M  END
