
     RDKit          3D

 30 30  0  0  0  0  0  0  0  0999 V2000
    0.9745    1.5140    3.4504 N   0  0  0  0  0  0  0  0  0  0  0  0
    1.6606    0.6417    2.5000 C   0  0  2  0  0  0  0  0  0  0  0  0
    0.8136    0.4304    1.2298 C   0  0  0  0  0  0  0  0  0  0  0  0
   -0.5559   -0.2303    1.4569 C   0  0  0  0  0  0  0  0  0  0  0  0
   -1.4061   -0.2874    0.1813 C   0  0  0  0  0  0  0  0  0  0  0  0
   -0.8399   -1.1816   -0.8946 C   0  0  0  0  0  0  0  0  0  0  0  0
   -0.3176   -0.6338   -2.0739 C   0  0  0  0  0  0  0  0  0  0  0  0
    0.2102   -1.4617   -3.0663 C   0  0  0  0  0  0  0  0  0  0  0  0
    0.2202   -2.8439   -2.8904 C   0  0  0  0  0  0  0  0  0  0  0  0
   -0.2982   -3.3998   -1.7226 C   0  0  0  0  0  0  0  0  0  0  0  0
   -0.8264   -2.5734   -0.7296 C   0  0  0  0  0  0  0  0  0  0  0  0
    2.0004   -0.6447    3.1960 C   0  0  0  0  0  0  0  0  0  0  0  0
    3.2340   -1.1623    3.2760 C   0  0  0  0  0  0  0  0  0  0  0  0
    1.6064    1.7073    4.2267 H   0  0  0  0  0  0  0  0  0  0  0  0
    0.7913    2.4120    3.0068 H   0  0  0  0  0  0  0  0  0  0  0  0
    2.5860    1.1474    2.1954 H   0  0  0  0  0  0  0  0  0  0  0  0
    1.3960   -0.1758    0.5242 H   0  0  0  0  0  0  0  0  0  0  0  0
    0.6611    1.4038    0.7444 H   0  0  0  0  0  0  0  0  0  0  0  0
   -1.1181    0.3391    2.2064 H   0  0  0  0  0  0  0  0  0  0  0  0
   -0.4236   -1.2408    1.8599 H   0  0  0  0  0  0  0  0  0  0  0  0
   -2.4091   -0.6539    0.4354 H   0  0  0  0  0  0  0  0  0  0  0  0
   -1.5513    0.7279   -0.2087 H   0  0  0  0  0  0  0  0  0  0  0  0
   -0.3161    0.4429   -2.2265 H   0  0  0  0  0  0  0  0  0  0  0  0
    0.6137   -1.0273   -3.9771 H   0  0  0  0  0  0  0  0  0  0  0  0
    0.6312   -3.4878   -3.6633 H   0  0  0  0  0  0  0  0  0  0  0  0
   -0.2918   -4.4776   -1.5842 H   0  0  0  0  0  0  0  0  0  0  0  0
   -1.2286   -3.0217    0.1761 H   0  0  0  0  0  0  0  0  0  0  0  0
    1.1799   -1.1802    3.6698 H   0  0  0  0  0  0  0  0  0  0  0  0
    4.0906   -0.6725    2.8245 H   0  0  0  0  0  0  0  0  0  0  0  0
    3.4077   -2.0977    3.7990 H   0  0  0  0  0  0  0  0  0  0  0  0
  1  2  1  0
  2  3  1  0
  3  4  1  0
  4  5  1  0
  5  6  1  0
  6  7  2  0
  7  8  1  0
  8  9  2  0
  9 10  1  0
 10 11  2  0
  2 12  1  0
 12 13  2  3
 11  6  1  0
  1 14  1  0
  1 15  1  0
  2 16  1  6
  3 17  1  0
  3 18  1  0
  4 19  1  0
  4 20  1  0
  5 21  1  0
  5 22  1  0
  7 23  1  0
  8 24  1  0
  9 25  1  0
 10 26  1  0
 11 27  1  0
 12 28  1  0
 13 29  1  0
 13 30  1  0
M  END
