
     RDKit          3D

 44 45  0  0  0  0  0  0  0  0999 V2000
   -3.2964   -4.6501   -0.1100 C   0  0  0  0  0  0  0  0  0  0  0  0
   -2.7739   -3.5848    0.8446 C   0  0  0  0  0  0  0  0  0  0  0  0
   -1.8630   -2.5041    0.2049 C   0  0  2  0  0  0  0  0  0  0  0  0
   -2.6846   -1.6540   -0.7751 C   0  0  0  0  0  0  0  0  0  0  0  0
   -0.5824   -3.0824   -0.4650 C   0  0  2  0  0  0  0  0  0  0  0  0
    0.1221   -3.9898    0.4593 N   0  0  0  0  0  0  0  0  0  0  0  0
    0.3950   -2.0387   -1.0757 C   0  0  0  0  0  0  0  0  0  0  0  0
    1.4821   -1.1232    0.1103 P   0  0  0  0  0  0  0  0  0  0  0  0
    0.3821    0.1749    0.7636 C   0  0  0  0  0  0  0  0  0  0  0  0
    0.1310    0.2143    2.1438 C   0  0  0  0  0  0  0  0  0  0  0  0
   -0.7052    1.1902    2.6917 C   0  0  0  0  0  0  0  0  0  0  0  0
   -1.2970    2.1442    1.8680 C   0  0  0  0  0  0  0  0  0  0  0  0
   -1.0506    2.1246    0.4974 C   0  0  0  0  0  0  0  0  0  0  0  0
   -0.2149    1.1481   -0.0506 C   0  0  0  0  0  0  0  0  0  0  0  0
    2.5949   -0.1227   -0.9444 C   0  0  0  0  0  0  0  0  0  0  0  0
    3.3581    0.8922   -0.3382 C   0  0  0  0  0  0  0  0  0  0  0  0
    4.2323    1.6876   -1.0840 C   0  0  0  0  0  0  0  0  0  0  0  0
    4.3677    1.4771   -2.4518 C   0  0  0  0  0  0  0  0  0  0  0  0
    3.6328    0.4695   -3.0695 C   0  0  0  0  0  0  0  0  0  0  0  0
    2.7574   -0.3260   -2.3214 C   0  0  0  0  0  0  0  0  0  0  0  0
   -3.8777   -4.2121   -0.9260 H   0  0  0  0  0  0  0  0  0  0  0  0
   -2.4830   -5.2407   -0.5397 H   0  0  0  0  0  0  0  0  0  0  0  0
   -3.9529   -5.3415    0.4292 H   0  0  0  0  0  0  0  0  0  0  0  0
   -2.2391   -4.0795    1.6642 H   0  0  0  0  0  0  0  0  0  0  0  0
   -3.6341   -3.0888    1.3123 H   0  0  0  0  0  0  0  0  0  0  0  0
   -1.5641   -1.8496    1.0302 H   0  0  0  0  0  0  0  0  0  0  0  0
   -2.1513   -0.7473   -1.0685 H   0  0  0  0  0  0  0  0  0  0  0  0
   -2.9208   -2.2091   -1.6887 H   0  0  0  0  0  0  0  0  0  0  0  0
   -3.6273   -1.3333   -0.3186 H   0  0  0  0  0  0  0  0  0  0  0  0
   -0.9161   -3.7008   -1.3086 H   0  0  0  0  0  0  0  0  0  0  0  0
    0.4719   -3.4394    1.2463 H   0  0  0  0  0  0  0  0  0  0  0  0
    0.9560   -4.3592    0.0027 H   0  0  0  0  0  0  0  0  0  0  0  0
   -0.1337   -1.3519   -1.7427 H   0  0  0  0  0  0  0  0  0  0  0  0
    1.0738   -2.6144   -1.7186 H   0  0  0  0  0  0  0  0  0  0  0  0
    0.5824   -0.5191    2.8089 H   0  0  0  0  0  0  0  0  0  0  0  0
   -0.8923    1.2045    3.7623 H   0  0  0  0  0  0  0  0  0  0  0  0
   -1.9462    2.9046    2.2940 H   0  0  0  0  0  0  0  0  0  0  0  0
   -1.5055    2.8718   -0.1476 H   0  0  0  0  0  0  0  0  0  0  0  0
   -0.0332    1.1619   -1.1227 H   0  0  0  0  0  0  0  0  0  0  0  0
    3.2737    1.0810    0.7310 H   0  0  0  0  0  0  0  0  0  0  0  0
    4.8058    2.4688   -0.5922 H   0  0  0  0  0  0  0  0  0  0  0  0
    5.0475    2.0931   -3.0341 H   0  0  0  0  0  0  0  0  0  0  0  0
    3.7413    0.2971   -4.1372 H   0  0  0  0  0  0  0  0  0  0  0  0
    2.2135   -1.1026   -2.8490 H   0  0  0  0  0  0  0  0  0  0  0  0
  1  2  1  0
  2  3  1  0
  3  4  1  0
  3  5  1  0
  5  6  1  0
  5  7  1  0
  7  8  1  0
  8  9  1  0
  9 10  2  0
 10 11  1  0
 11 12  2  0
 12 13  1  0
 13 14  2  0
  8 15  1  0
 15 16  2  0
 16 17  1  0
 17 18  2  0
 18 19  1  0
 19 20  2  0
 14  9  1  0
 20 15  1  0
  1 21  1  0
  1 22  1  0
  1 23  1  0
  2 24  1  0
  2 25  1  0
  3 26  1  1
  4 27  1  0
  4 28  1  0
  4 29  1  0
  5 30  1  6
  6 31  1  0
  6 32  1  0
  7 33  1  0
  7 34  1  0
 10 35  1  0
 11 36  1  0
 12 37  1  0
 13 38  1  0
 14 39  1  0
 16 40  1  0
 17 41  1  0
 18 42  1  0
 19 43  1  0
 20 44  1  0
M  END
