
     RDKit          3D

 50 51  0  0  0  0  0  0  0  0999 V2000
    3.5956    0.5790   -0.7177 C   0  0  0  0  0  0  0  0  0  0  0  0
    3.6293   -0.7777   -0.0730 C   0  0  0  0  0  0  0  0  0  0  0  0
    4.9179   -1.3173    0.1552 C   0  0  0  0  0  0  0  0  0  0  0  0
    5.1002   -2.5657    0.7435 C   0  0  0  0  0  0  0  0  0  0  0  0
    3.9945   -3.3051    1.1217 C   0  0  0  0  0  0  0  0  0  0  0  0
    2.7156   -2.7878    0.9100 C   0  0  0  0  0  0  0  0  0  0  0  0
    2.4923   -1.5207    0.3107 C   0  0  0  0  0  0  0  0  0  0  0  0
    0.7097   -1.1087    0.1831 P   0  0  0  0  0  0  0  0  0  0  0  0
    0.4817    0.5966   -0.4183 C   0  0  0  0  0  0  0  0  0  0  0  0
   -0.9630    1.1756   -0.4628 C   0  0  1  0  0  0  0  0  0  0  0  0
   -1.8658    0.3731   -1.3053 N   0  0  0  0  0  0  0  0  0  0  0  0
   -1.6402    1.5786    0.9036 C   0  0  0  0  0  0  0  0  0  0  0  0
   -2.0865    0.3821    1.7646 C   0  0  0  0  0  0  0  0  0  0  0  0
   -0.6917    2.4526    1.7503 C   0  0  0  0  0  0  0  0  0  0  0  0
   -2.9030    2.4274    0.6066 C   0  0  0  0  0  0  0  0  0  0  0  0
    0.2313   -2.1577   -1.2446 C   0  0  0  0  0  0  0  0  0  0  0  0
    0.8638   -1.9831   -2.4900 C   0  0  0  0  0  0  0  0  0  0  0  0
    0.5072   -2.7493   -3.6007 C   0  0  0  0  0  0  0  0  0  0  0  0
   -0.4879   -3.7106   -3.4876 C   0  0  0  0  0  0  0  0  0  0  0  0
   -1.1193   -3.9120   -2.2621 C   0  0  0  0  0  0  0  0  0  0  0  0
   -0.7693   -3.1515   -1.1308 C   0  0  0  0  0  0  0  0  0  0  0  0
   -1.4859   -3.4392    0.1638 C   0  0  0  0  0  0  0  0  0  0  0  0
    4.5998    0.9161   -1.0009 H   0  0  0  0  0  0  0  0  0  0  0  0
    3.2061    1.3263   -0.0229 H   0  0  0  0  0  0  0  0  0  0  0  0
    3.0179    0.5571   -1.6437 H   0  0  0  0  0  0  0  0  0  0  0  0
    5.8049   -0.7544   -0.1321 H   0  0  0  0  0  0  0  0  0  0  0  0
    6.1018   -2.9545    0.9036 H   0  0  0  0  0  0  0  0  0  0  0  0
    4.1168   -4.2817    1.5815 H   0  0  0  0  0  0  0  0  0  0  0  0
    1.8725   -3.4031    1.2247 H   0  0  0  0  0  0  0  0  0  0  0  0
    0.8835    0.6844   -1.4328 H   0  0  0  0  0  0  0  0  0  0  0  0
    1.0820    1.2662    0.2008 H   0  0  0  0  0  0  0  0  0  0  0  0
   -0.8468    2.1238   -1.0090 H   0  0  0  0  0  0  0  0  0  0  0  0
   -1.9892   -0.5448   -0.8759 H   0  0  0  0  0  0  0  0  0  0  0  0
   -1.4104    0.1707   -2.1966 H   0  0  0  0  0  0  0  0  0  0  0  0
   -2.7625   -0.2845    1.2206 H   0  0  0  0  0  0  0  0  0  0  0  0
   -2.6275    0.7257    2.6550 H   0  0  0  0  0  0  0  0  0  0  0  0
   -1.2389   -0.2039    2.1271 H   0  0  0  0  0  0  0  0  0  0  0  0
   -0.3088    3.2985    1.1687 H   0  0  0  0  0  0  0  0  0  0  0  0
   -1.2072    2.8615    2.6272 H   0  0  0  0  0  0  0  0  0  0  0  0
    0.1631    1.8798    2.1246 H   0  0  0  0  0  0  0  0  0  0  0  0
   -2.6547    3.3078    0.0031 H   0  0  0  0  0  0  0  0  0  0  0  0
   -3.6618    1.8508    0.0667 H   0  0  0  0  0  0  0  0  0  0  0  0
   -3.3675    2.7854    1.5330 H   0  0  0  0  0  0  0  0  0  0  0  0
    1.6570   -1.2499   -2.6120 H   0  0  0  0  0  0  0  0  0  0  0  0
    1.0126   -2.5967   -4.5506 H   0  0  0  0  0  0  0  0  0  0  0  0
   -0.7682   -4.3104   -4.3494 H   0  0  0  0  0  0  0  0  0  0  0  0
   -1.8904   -4.6769   -2.1921 H   0  0  0  0  0  0  0  0  0  0  0  0
   -2.0596   -2.5666    0.4884 H   0  0  0  0  0  0  0  0  0  0  0  0
   -0.7734   -3.7273    0.9431 H   0  0  0  0  0  0  0  0  0  0  0  0
   -2.1934   -4.2687    0.0549 H   0  0  0  0  0  0  0  0  0  0  0  0
  1  2  1  0
  2  3  2  0
  3  4  1  0
  4  5  2  0
  5  6  1  0
  6  7  2  0
  7  8  1  0
  8  9  1  0
  9 10  1  0
 10 11  1  0
 10 12  1  0
 12 13  1  0
 12 14  1  0
 12 15  1  0
  8 16  1  0
 16 17  2  0
 17 18  1  0
 18 19  2  0
 19 20  1  0
 20 21  2  0
 21 22  1  0
  7  2  1  0
 21 16  1  0
  1 23  1  0
  1 24  1  0
  1 25  1  0
  3 26  1  0
  4 27  1  0
  5 28  1  0
  6 29  1  0
  9 30  1  0
  9 31  1  0
 10 32  1  6
 11 33  1  0
 11 34  1  0
 13 35  1  0
 13 36  1  0
 13 37  1  0
 14 38  1  0
 14 39  1  0
 14 40  1  0
 15 41  1  0
 15 42  1  0
 15 43  1  0
 17 44  1  0
 18 45  1  0
 19 46  1  0
 20 47  1  0
 22 48  1  0
 22 49  1  0
 22 50  1  0
M  END
