
     RDKit          3D

 47 48  0  0  0  0  0  0  0  0999 V2000
    3.6782    1.5763    1.8764 C   0  0  0  0  0  0  0  0  0  0  0  0
    3.4159    0.5744    0.7448 C   0  0  0  0  0  0  0  0  0  0  0  0
    3.8628   -0.8236    1.1848 C   0  0  0  0  0  0  0  0  0  0  0  0
    1.9484    0.5891    0.2119 C   0  0  2  0  0  0  0  0  0  0  0  0
    1.7732    1.8712   -0.4967 N   0  0  0  0  0  0  0  0  0  0  0  0
    0.8916    0.3897    1.3250 C   0  0  0  0  0  0  0  0  0  0  0  0
   -0.7925   -0.2200    0.9107 P   0  0  0  0  0  0  0  0  0  0  0  0
   -1.2650    0.6866   -0.6001 C   0  0  0  0  0  0  0  0  0  0  0  0
   -0.9466    0.1767   -1.8747 C   0  0  0  0  0  0  0  0  0  0  0  0
   -1.2845    0.8641   -3.0419 C   0  0  0  0  0  0  0  0  0  0  0  0
   -1.9509    2.0787   -2.9620 C   0  0  0  0  0  0  0  0  0  0  0  0
   -2.2817    2.6043   -1.7154 C   0  0  0  0  0  0  0  0  0  0  0  0
   -1.9502    1.9238   -0.5284 C   0  0  0  0  0  0  0  0  0  0  0  0
   -2.3485    2.5562    0.7814 C   0  0  0  0  0  0  0  0  0  0  0  0
   -0.7095   -1.9719    0.4094 C   0  0  0  0  0  0  0  0  0  0  0  0
    0.5054   -2.6782    0.4387 C   0  0  0  0  0  0  0  0  0  0  0  0
    0.5931   -4.0175    0.0480 C   0  0  0  0  0  0  0  0  0  0  0  0
   -0.5421   -4.6931   -0.3721 C   0  0  0  0  0  0  0  0  0  0  0  0
   -1.7666   -4.0335   -0.3831 C   0  0  0  0  0  0  0  0  0  0  0  0
   -1.8731   -2.6873    0.0209 C   0  0  0  0  0  0  0  0  0  0  0  0
   -3.2507   -2.0691   -0.0050 C   0  0  0  0  0  0  0  0  0  0  0  0
    3.0988    1.3349    2.7733 H   0  0  0  0  0  0  0  0  0  0  0  0
    4.7374    1.5667    2.1568 H   0  0  0  0  0  0  0  0  0  0  0  0
    3.4326    2.5991    1.5753 H   0  0  0  0  0  0  0  0  0  0  0  0
    4.0745    0.8522   -0.0912 H   0  0  0  0  0  0  0  0  0  0  0  0
    3.3183   -1.1732    2.0667 H   0  0  0  0  0  0  0  0  0  0  0  0
    4.9291   -0.8225    1.4370 H   0  0  0  0  0  0  0  0  0  0  0  0
    3.7195   -1.5491    0.3777 H   0  0  0  0  0  0  0  0  0  0  0  0
    1.8638   -0.2055   -0.5381 H   0  0  0  0  0  0  0  0  0  0  0  0
    1.6357    2.6282    0.1709 H   0  0  0  0  0  0  0  0  0  0  0  0
    0.9141    1.8440   -1.0473 H   0  0  0  0  0  0  0  0  0  0  0  0
    0.7504    1.3453    1.8474 H   0  0  0  0  0  0  0  0  0  0  0  0
    1.2769   -0.2878    2.0941 H   0  0  0  0  0  0  0  0  0  0  0  0
   -0.4144   -0.7663   -1.9826 H   0  0  0  0  0  0  0  0  0  0  0  0
   -1.0222    0.4472   -4.0107 H   0  0  0  0  0  0  0  0  0  0  0  0
   -2.2151    2.6169   -3.8683 H   0  0  0  0  0  0  0  0  0  0  0  0
   -2.8075    3.5563   -1.6739 H   0  0  0  0  0  0  0  0  0  0  0  0
   -3.0078    1.8892    1.3462 H   0  0  0  0  0  0  0  0  0  0  0  0
   -2.8968    3.4918    0.6253 H   0  0  0  0  0  0  0  0  0  0  0  0
   -1.4619    2.7971    1.3763 H   0  0  0  0  0  0  0  0  0  0  0  0
    1.4213   -2.2054    0.7702 H   0  0  0  0  0  0  0  0  0  0  0  0
    1.5520   -4.5285    0.0755 H   0  0  0  0  0  0  0  0  0  0  0  0
   -0.4790   -5.7330   -0.6803 H   0  0  0  0  0  0  0  0  0  0  0  0
   -2.6515   -4.5803   -0.7033 H   0  0  0  0  0  0  0  0  0  0  0  0
   -3.3580   -1.4035   -0.8659 H   0  0  0  0  0  0  0  0  0  0  0  0
   -4.0278   -2.8379   -0.0850 H   0  0  0  0  0  0  0  0  0  0  0  0
   -3.4575   -1.5219    0.9199 H   0  0  0  0  0  0  0  0  0  0  0  0
  1  2  1  0
  2  3  1  0
  2  4  1  0
  4  5  1  0
  4  6  1  0
  6  7  1  0
  7  8  1  0
  8  9  2  0
  9 10  1  0
 10 11  2  0
 11 12  1  0
 12 13  2  0
 13 14  1  0
  7 15  1  0
 15 16  2  0
 16 17  1  0
 17 18  2  0
 18 19  1  0
 19 20  2  0
 20 21  1  0
 13  8  1  0
 20 15  1  0
  1 22  1  0
  1 23  1  0
  1 24  1  0
  2 25  1  0
  3 26  1  0
  3 27  1  0
  3 28  1  0
  4 29  1  6
  5 30  1  0
  5 31  1  0
  6 32  1  0
  6 33  1  0
  9 34  1  0
 10 35  1  0
 11 36  1  0
 12 37  1  0
 14 38  1  0
 14 39  1  0
 14 40  1  0
 16 41  1  0
 17 42  1  0
 18 43  1  0
 19 44  1  0
 21 45  1  0
 21 46  1  0
 21 47  1  0
M  END
