
     RDKit          3D

 28 27  0  0  0  0  0  0  0  0999 V2000
   -1.6230   -2.5914    4.0407 C   0  0  0  0  0  0  0  0  0  0  0  0
   -1.3010   -1.5631    3.0512 C   0  0  0  0  0  0  0  0  0  0  0  0
   -1.0383   -0.7188    2.2382 C   0  0  0  0  0  0  0  0  0  0  0  0
   -0.7226    0.3151    1.2418 C   0  0  0  0  0  0  0  0  0  0  0  0
    0.5545   -0.0019    0.4616 C   0  0  0  0  0  0  0  0  0  0  0  0
    0.5214   -1.2911   -0.3715 C   0  0  0  0  0  0  0  0  0  0  0  0
   -0.6378   -1.4572   -1.3766 C   0  0  2  0  0  0  0  0  0  0  0  0
   -0.6327   -2.8589   -1.8414 N   0  0  0  0  0  0  0  0  0  0  0  0
   -0.5540   -0.5513   -2.6274 C   0  0  0  0  0  0  0  0  0  0  0  0
   -0.8430    0.9061   -2.3956 C   0  0  0  0  0  0  0  0  0  0  0  0
   -2.0472    1.4653   -2.5715 C   0  0  0  0  0  0  0  0  0  0  0  0
   -1.9475   -2.1377    4.9819 H   0  0  0  0  0  0  0  0  0  0  0  0
   -2.4278   -3.2392    3.6806 H   0  0  0  0  0  0  0  0  0  0  0  0
   -0.7503   -3.2177    4.2486 H   0  0  0  0  0  0  0  0  0  0  0  0
   -0.5847    1.2726    1.7586 H   0  0  0  0  0  0  0  0  0  0  0  0
   -1.5700    0.4541    0.5635 H   0  0  0  0  0  0  0  0  0  0  0  0
    0.8032    0.8485   -0.1792 H   0  0  0  0  0  0  0  0  0  0  0  0
    1.3907   -0.0846    1.1694 H   0  0  0  0  0  0  0  0  0  0  0  0
    0.5047   -2.1341    0.3332 H   0  0  0  0  0  0  0  0  0  0  0  0
    1.4782   -1.3753   -0.9047 H   0  0  0  0  0  0  0  0  0  0  0  0
   -1.5990   -1.2974   -0.8769 H   0  0  0  0  0  0  0  0  0  0  0  0
    0.2754   -3.0831   -2.2469 H   0  0  0  0  0  0  0  0  0  0  0  0
   -0.7434   -3.4784   -1.0385 H   0  0  0  0  0  0  0  0  0  0  0  0
    0.4381   -0.6375   -3.0899 H   0  0  0  0  0  0  0  0  0  0  0  0
   -1.2621   -0.9221   -3.3827 H   0  0  0  0  0  0  0  0  0  0  0  0
   -0.0078    1.5417   -2.1141 H   0  0  0  0  0  0  0  0  0  0  0  0
   -2.9082    0.8770   -2.8753 H   0  0  0  0  0  0  0  0  0  0  0  0
   -2.1967    2.5292   -2.4150 H   0  0  0  0  0  0  0  0  0  0  0  0
  1  2  1  0
  2  3  3  0
  3  4  1  0
  4  5  1  0
  5  6  1  0
  6  7  1  0
  7  8  1  0
  7  9  1  0
  9 10  1  0
 10 11  2  3
  1 12  1  0
  1 13  1  0
  1 14  1  0
  4 15  1  0
  4 16  1  0
  5 17  1  0
  5 18  1  0
  6 19  1  0
  6 20  1  0
  7 21  1  1
  8 22  1  0
  8 23  1  0
  9 24  1  0
  9 25  1  0
 10 26  1  0
 11 27  1  0
 11 28  1  0
M  END
