
     RDKit          3D

 13 12  0  0  0  0  0  0  0  0999 V2000
   -1.7805    0.0476    2.1674 C   0  0  0  0  0  0  0  0  0  0  0  0
   -0.7402    0.0566    1.0492 C   0  0  2  0  0  0  0  0  0  0  0  0
   -0.8339   -1.2309    0.3141 N   0  0  0  0  0  0  0  0  0  0  0  0
    0.6576    0.4141    1.6181 C   0  0  0  0  0  0  0  0  0  0  0  0
    1.5837    0.4162    0.6284 F   0  0  0  0  0  0  0  0  0  0  0  0
    1.0672   -0.4554    2.5656 F   0  0  0  0  0  0  0  0  0  0  0  0
    0.6543    1.6518    2.1654 F   0  0  0  0  0  0  0  0  0  0  0  0
   -2.7870   -0.1229    1.7691 H   0  0  0  0  0  0  0  0  0  0  0  0
   -1.7942    1.0084    2.6931 H   0  0  0  0  0  0  0  0  0  0  0  0
   -1.5700   -0.7367    2.9031 H   0  0  0  0  0  0  0  0  0  0  0  0
   -1.0073    0.8478    0.3382 H   0  0  0  0  0  0  0  0  0  0  0  0
   -0.1170   -1.2545   -0.4137 H   0  0  0  0  0  0  0  0  0  0  0  0
   -1.7348   -1.2915   -0.1592 H   0  0  0  0  0  0  0  0  0  0  0  0
  1  2  1  0
  2  3  1  0
  2  4  1  0
  4  5  1  0
  4  6  1  0
  4  7  1  0
  1  8  1  0
  1  9  1  0
  1 10  1  0
  2 11  1  6
  3 12  1  0
  3 13  1  0
M  END
