
     RDKit          3D

 21 20  0  0  0  0  0  0  0  0999 V2000
   -0.7958   -2.1476   -2.5060 C   0  0  0  0  0  0  0  0  0  0  0  0
   -1.1953   -1.0314   -1.5508 C   0  0  0  0  0  0  0  0  0  0  0  0
   -0.9911   -1.3856   -0.0620 C   0  0  2  0  0  0  0  0  0  0  0  0
   -1.6793   -0.3197    0.8051 C   0  0  0  0  0  0  0  0  0  0  0  0
    0.4930   -1.6199    0.3249 C   0  0  2  0  0  0  0  0  0  0  0  0
    0.5856   -2.1185    1.7187 N   0  0  0  0  0  0  0  0  0  0  0  0
    1.3672   -0.3458    0.1530 C   0  0  0  0  0  0  0  0  0  0  0  0
    2.4062   -0.4443   -1.2490 Cl  0  0  0  0  0  0  0  0  0  0  0  0
    1.3386    0.6037    0.9317 O   0  0  0  0  0  0  0  0  0  0  0  0
   -1.0558   -1.8711   -3.5330 H   0  0  0  0  0  0  0  0  0  0  0  0
    0.2790   -2.3430   -2.4809 H   0  0  0  0  0  0  0  0  0  0  0  0
   -1.3214   -3.0767   -2.2643 H   0  0  0  0  0  0  0  0  0  0  0  0
   -0.6513   -0.1157   -1.8084 H   0  0  0  0  0  0  0  0  0  0  0  0
   -2.2577   -0.8149   -1.7218 H   0  0  0  0  0  0  0  0  0  0  0  0
   -1.5289   -2.3278    0.1186 H   0  0  0  0  0  0  0  0  0  0  0  0
   -1.2747    0.6795    0.6159 H   0  0  0  0  0  0  0  0  0  0  0  0
   -2.7523   -0.2846    0.5847 H   0  0  0  0  0  0  0  0  0  0  0  0
   -1.5767   -0.5370    1.8726 H   0  0  0  0  0  0  0  0  0  0  0  0
    0.9088   -2.4175   -0.3002 H   0  0  0  0  0  0  0  0  0  0  0  0
    1.5591   -2.2942    1.9654 H   0  0  0  0  0  0  0  0  0  0  0  0
    0.0923   -3.0057    1.8026 H   0  0  0  0  0  0  0  0  0  0  0  0
  1  2  1  0
  2  3  1  0
  3  4  1  0
  3  5  1  0
  5  6  1  0
  5  7  1  0
  7  8  1  0
  7  9  2  0
  1 10  1  0
  1 11  1  0
  1 12  1  0
  2 13  1  0
  2 14  1  0
  3 15  1  6
  4 16  1  0
  4 17  1  0
  4 18  1  0
  5 19  1  6
  6 20  1  0
  6 21  1  0
M  END
