
     RDKit          3D

 49 48  0  0  0  0  0  0  0  0999 V2000
   -1.3592   -0.1391    4.2830 C   0  0  0  0  0  0  0  0  0  0  0  0
   -2.7999   -0.5476    4.5600 C   0  0  0  0  0  0  0  0  0  0  0  0
   -3.2227   -1.8162    3.8104 C   0  0  0  0  0  0  0  0  0  0  0  0
   -3.3970   -1.7432    2.3153 C   0  0  0  0  0  0  0  0  0  0  0  0
   -3.4483   -0.6396    1.5538 C   0  0  0  0  0  0  0  0  0  0  0  0
   -3.6174   -0.6879    0.1196 C   0  0  0  0  0  0  0  0  0  0  0  0
   -3.6579    0.4143   -0.6442 C   0  0  0  0  0  0  0  0  0  0  0  0
   -3.8264    0.3889   -2.1420 C   0  0  0  0  0  0  0  0  0  0  0  0
   -2.6124    0.9234   -2.9431 C   0  0  1  0  0  0  0  0  0  0  0  0
   -2.3269    2.3328   -2.6291 N   0  0  0  0  0  0  0  0  0  0  0  0
   -1.3650    0.0248   -2.7434 C   0  0  0  0  0  0  0  0  0  0  0  0
   -0.1837    0.4477   -3.5809 C   0  0  0  0  0  0  0  0  0  0  0  0
    1.0738    0.7138   -3.1894 C   0  0  0  0  0  0  0  0  0  0  0  0
    1.5874    0.6588   -1.8359 C   0  0  0  0  0  0  0  0  0  0  0  0
    2.8628    0.8807   -1.4489 C   0  0  0  0  0  0  0  0  0  0  0  0
    3.9925    1.1266   -2.4154 C   0  0  0  0  0  0  0  0  0  0  0  0
    3.1767    0.7687   -0.0244 C   0  0  0  0  0  0  0  0  0  0  0  0
    4.1099    1.3793    0.7252 C   0  0  0  0  0  0  0  0  0  0  0  0
    5.0339    2.4208    0.3439 C   0  0  0  0  0  0  0  0  0  0  0  0
    5.9831    2.8855    1.1655 C   0  0  0  0  0  0  0  0  0  0  0  0
   -1.0973    0.7395    4.8813 H   0  0  0  0  0  0  0  0  0  0  0  0
   -0.6675   -0.9451    4.5485 H   0  0  0  0  0  0  0  0  0  0  0  0
   -1.2004    0.1140    3.2313 H   0  0  0  0  0  0  0  0  0  0  0  0
   -3.4761    0.2838    4.3313 H   0  0  0  0  0  0  0  0  0  0  0  0
   -2.8974   -0.7370    5.6363 H   0  0  0  0  0  0  0  0  0  0  0  0
   -2.4911   -2.6059    4.0244 H   0  0  0  0  0  0  0  0  0  0  0  0
   -4.1761   -2.1613    4.2303 H   0  0  0  0  0  0  0  0  0  0  0  0
   -3.5010   -2.7163    1.8360 H   0  0  0  0  0  0  0  0  0  0  0  0
   -3.3638    0.3456    2.0049 H   0  0  0  0  0  0  0  0  0  0  0  0
   -3.7055   -1.6696   -0.3416 H   0  0  0  0  0  0  0  0  0  0  0  0
   -3.5766    1.3968   -0.1847 H   0  0  0  0  0  0  0  0  0  0  0  0
   -4.0502   -0.6307   -2.4818 H   0  0  0  0  0  0  0  0  0  0  0  0
   -4.7123    0.9881   -2.3897 H   0  0  0  0  0  0  0  0  0  0  0  0
   -2.8903    0.8884   -4.0045 H   0  0  0  0  0  0  0  0  0  0  0  0
   -3.1954    2.8549   -2.5334 H   0  0  0  0  0  0  0  0  0  0  0  0
   -1.8455    2.3914   -1.7324 H   0  0  0  0  0  0  0  0  0  0  0  0
   -1.6230   -1.0014   -3.0351 H   0  0  0  0  0  0  0  0  0  0  0  0
   -1.1054   -0.0151   -1.6819 H   0  0  0  0  0  0  0  0  0  0  0  0
   -0.3998    0.5498   -4.6443 H   0  0  0  0  0  0  0  0  0  0  0  0
    1.7697    1.0179   -3.9684 H   0  0  0  0  0  0  0  0  0  0  0  0
    0.8511    0.4479   -1.0638 H   0  0  0  0  0  0  0  0  0  0  0  0
    4.9424    0.7376   -2.0324 H   0  0  0  0  0  0  0  0  0  0  0  0
    4.1018    2.1959   -2.6196 H   0  0  0  0  0  0  0  0  0  0  0  0
    3.8362    0.6143   -3.3701 H   0  0  0  0  0  0  0  0  0  0  0  0
    2.5325    0.0691    0.5133 H   0  0  0  0  0  0  0  0  0  0  0  0
    4.1519    1.0891    1.7759 H   0  0  0  0  0  0  0  0  0  0  0  0
    4.9382    2.8704   -0.6384 H   0  0  0  0  0  0  0  0  0  0  0  0
    6.1274    2.4926    2.1668 H   0  0  0  0  0  0  0  0  0  0  0  0
    6.6469    3.6818    0.8432 H   0  0  0  0  0  0  0  0  0  0  0  0
  1  2  1  0
  2  3  1  0
  3  4  1  0
  4  5  2  0
  5  6  1  0
  6  7  2  0
  7  8  1  0
  8  9  1  0
  9 10  1  0
  9 11  1  0
 11 12  1  0
 12 13  2  0
 13 14  1  0
 14 15  2  0
 15 16  1  0
 15 17  1  0
 17 18  2  3
 18 19  1  0
 19 20  2  3
  1 21  1  0
  1 22  1  0
  1 23  1  0
  2 24  1  0
  2 25  1  0
  3 26  1  0
  3 27  1  0
  4 28  1  0
  5 29  1  0
  6 30  1  0
  7 31  1  0
  8 32  1  0
  8 33  1  0
  9 34  1  6
 10 35  1  0
 10 36  1  0
 11 37  1  0
 11 38  1  0
 12 39  1  0
 13 40  1  0
 14 41  1  0
 16 42  1  0
 16 43  1  0
 16 44  1  0
 17 45  1  0
 18 46  1  0
 19 47  1  0
 20 48  1  0
 20 49  1  0
M  END
