
     RDKit          3D

 36 36  0  0  0  0  0  0  0  0999 V2000
    2.2726    0.5136   -0.9450 C   0  0  0  0  0  0  0  0  0  0  0  0
    2.8328   -0.4528    0.1175 C   0  0  0  0  0  0  0  0  0  0  0  0
    3.0614   -1.8227   -0.5535 C   0  0  0  0  0  0  0  0  0  0  0  0
    4.2128    0.1071    0.5436 C   0  0  0  0  0  0  0  0  0  0  0  0
    1.8811   -0.5540    1.3700 C   0  0  2  0  0  0  0  0  0  0  0  0
    2.4592   -1.4426    2.3995 N   0  0  0  0  0  0  0  0  0  0  0  0
    0.4301   -1.0442    1.0972 C   0  0  0  0  0  0  0  0  0  0  0  0
   -0.4925   -0.0009    0.5241 C   0  0  0  0  0  0  0  0  0  0  0  0
   -1.2552   -0.2003   -0.5632 C   0  0  0  0  0  0  0  0  0  0  0  0
   -2.1540    0.8114   -1.1337 C   0  0  0  0  0  0  0  0  0  0  0  0
   -2.2757    0.9006   -2.5264 C   0  0  0  0  0  0  0  0  0  0  0  0
   -3.1395    1.8325   -3.1072 C   0  0  0  0  0  0  0  0  0  0  0  0
   -3.8990    2.6770   -2.3004 C   0  0  0  0  0  0  0  0  0  0  0  0
   -3.7987    2.5871   -0.9136 C   0  0  0  0  0  0  0  0  0  0  0  0
   -2.9341    1.6556   -0.3328 C   0  0  0  0  0  0  0  0  0  0  0  0
    3.0173    0.7222   -1.7226 H   0  0  0  0  0  0  0  0  0  0  0  0
    1.9877    1.4728   -0.4993 H   0  0  0  0  0  0  0  0  0  0  0  0
    1.4048    0.0938   -1.4600 H   0  0  0  0  0  0  0  0  0  0  0  0
    2.1309   -2.2406   -0.9501 H   0  0  0  0  0  0  0  0  0  0  0  0
    3.4888   -2.5508    0.1439 H   0  0  0  0  0  0  0  0  0  0  0  0
    3.7578   -1.7334   -1.3958 H   0  0  0  0  0  0  0  0  0  0  0  0
    4.1036    1.0585    1.0760 H   0  0  0  0  0  0  0  0  0  0  0  0
    4.8536    0.2877   -0.3276 H   0  0  0  0  0  0  0  0  0  0  0  0
    4.7565   -0.5868    1.1929 H   0  0  0  0  0  0  0  0  0  0  0  0
    1.8174    0.4445    1.8244 H   0  0  0  0  0  0  0  0  0  0  0  0
    3.3455   -1.0611    2.7260 H   0  0  0  0  0  0  0  0  0  0  0  0
    1.8514   -1.4593    3.2182 H   0  0  0  0  0  0  0  0  0  0  0  0
   -0.0302   -1.3390    2.0511 H   0  0  0  0  0  0  0  0  0  0  0  0
    0.4373   -1.9504    0.4814 H   0  0  0  0  0  0  0  0  0  0  0  0
   -0.5243    0.9513    1.0489 H   0  0  0  0  0  0  0  0  0  0  0  0
   -1.2093   -1.1476   -1.0960 H   0  0  0  0  0  0  0  0  0  0  0  0
   -1.6905    0.2500   -3.1723 H   0  0  0  0  0  0  0  0  0  0  0  0
   -3.2193    1.8970   -4.1891 H   0  0  0  0  0  0  0  0  0  0  0  0
   -4.5722    3.4010   -2.7518 H   0  0  0  0  0  0  0  0  0  0  0  0
   -4.3974    3.2379   -0.2818 H   0  0  0  0  0  0  0  0  0  0  0  0
   -2.8856    1.5891    0.7511 H   0  0  0  0  0  0  0  0  0  0  0  0
  1  2  1  0
  2  3  1  0
  2  4  1  0
  2  5  1  0
  5  6  1  0
  5  7  1  0
  7  8  1  0
  8  9  2  0
  9 10  1  0
 10 11  2  0
 11 12  1  0
 12 13  2  0
 13 14  1  0
 14 15  2  0
 15 10  1  0
  1 16  1  0
  1 17  1  0
  1 18  1  0
  3 19  1  0
  3 20  1  0
  3 21  1  0
  4 22  1  0
  4 23  1  0
  4 24  1  0
  5 25  1  1
  6 26  1  0
  6 27  1  0
  7 28  1  0
  7 29  1  0
  8 30  1  0
  9 31  1  0
 11 32  1  0
 12 33  1  0
 13 34  1  0
 14 35  1  0
 15 36  1  0
M  END
