
     RDKit          3D

 30 30  0  0  0  0  0  0  0  0999 V2000
   -1.5653   -2.3538   -1.6928 C   0  0  0  0  0  0  0  0  0  0  0  0
   -0.2936   -1.9866   -2.4668 C   0  0  0  0  0  0  0  0  0  0  0  0
   -0.5963   -0.8401   -3.4396 C   0  0  0  0  0  0  0  0  0  0  0  0
    0.9037   -1.6985   -1.5174 C   0  0  1  0  0  0  0  0  0  0  0  0
    2.1434   -1.5574   -2.3006 N   0  0  0  0  0  0  0  0  0  0  0  0
    0.6551   -0.5346   -0.5749 C   0  0  0  0  0  0  0  0  0  0  0  0
   -0.0883   -0.8064    0.5264 F   0  0  0  0  0  0  0  0  0  0  0  0
    1.1623    0.7029   -0.7189 C   0  0  0  0  0  0  0  0  0  0  0  0
    0.9534    1.8308    0.1997 C   0  0  0  0  0  0  0  0  0  0  0  0
   -0.2691    2.0630    0.8426 C   0  0  0  0  0  0  0  0  0  0  0  0
   -0.4357    3.1701    1.6791 C   0  0  0  0  0  0  0  0  0  0  0  0
    0.6150    4.0641    1.8722 C   0  0  0  0  0  0  0  0  0  0  0  0
    1.8308    3.8548    1.2256 C   0  0  0  0  0  0  0  0  0  0  0  0
    1.9966    2.7475    0.3894 C   0  0  0  0  0  0  0  0  0  0  0  0
   -2.3495   -2.6879   -2.3809 H   0  0  0  0  0  0  0  0  0  0  0  0
   -1.3716   -3.1705   -0.9895 H   0  0  0  0  0  0  0  0  0  0  0  0
   -1.9613   -1.5021   -1.1302 H   0  0  0  0  0  0  0  0  0  0  0  0
   -0.0320   -2.8656   -3.0729 H   0  0  0  0  0  0  0  0  0  0  0  0
    0.2803   -0.5844   -4.0429 H   0  0  0  0  0  0  0  0  0  0  0  0
   -0.9254    0.0621   -2.9139 H   0  0  0  0  0  0  0  0  0  0  0  0
   -1.3957   -1.1280   -4.1314 H   0  0  0  0  0  0  0  0  0  0  0  0
    1.0447   -2.5844   -0.8839 H   0  0  0  0  0  0  0  0  0  0  0  0
    2.9327   -1.5539   -1.6545 H   0  0  0  0  0  0  0  0  0  0  0  0
    2.2644   -2.3851   -2.8824 H   0  0  0  0  0  0  0  0  0  0  0  0
    1.7891    0.9206   -1.5808 H   0  0  0  0  0  0  0  0  0  0  0  0
   -1.1082    1.3872    0.6954 H   0  0  0  0  0  0  0  0  0  0  0  0
   -1.3884    3.3339    2.1757 H   0  0  0  0  0  0  0  0  0  0  0  0
    0.4846    4.9250    2.5224 H   0  0  0  0  0  0  0  0  0  0  0  0
    2.6508    4.5532    1.3696 H   0  0  0  0  0  0  0  0  0  0  0  0
    2.9531    2.6034   -0.1082 H   0  0  0  0  0  0  0  0  0  0  0  0
  1  2  1  0
  2  3  1  0
  2  4  1  0
  4  5  1  0
  4  6  1  0
  6  7  1  0
  6  8  2  0
  8  9  1  0
  9 10  2  0
 10 11  1  0
 11 12  2  0
 12 13  1  0
 13 14  2  0
 14  9  1  0
  1 15  1  0
  1 16  1  0
  1 17  1  0
  2 18  1  0
  3 19  1  0
  3 20  1  0
  3 21  1  0
  4 22  1  1
  5 23  1  0
  5 24  1  0
  8 25  1  0
 10 26  1  0
 11 27  1  0
 12 28  1  0
 13 29  1  0
 14 30  1  0
M  END
