
     RDKit          3D

 16 15  0  0  0  0  0  0  0  0999 V2000
   -2.0268    0.1936    0.8211 C   0  0  0  0  0  0  0  0  0  0  0  0
   -0.5708    0.5695    0.7008 C   0  0  0  0  0  0  0  0  0  0  0  0
    0.2973   -0.0583    1.3100 O   0  0  0  0  0  0  0  0  0  0  0  0
   -0.2385    1.7674   -0.1980 C   0  0  1  0  0  0  0  0  0  0  0  0
   -0.7256    3.0002    0.4558 N   0  0  0  0  0  0  0  0  0  0  0  0
    1.2711    1.8082   -0.4930 C   0  0  0  0  0  0  0  0  0  0  0  0
    1.7112    3.1787   -1.6182 S   0  0  0  0  0  0  0  0  0  0  0  0
   -2.4476    0.0294   -0.1740 H   0  0  0  0  0  0  0  0  0  0  0  0
   -2.1193   -0.7334    1.3943 H   0  0  0  0  0  0  0  0  0  0  0  0
   -2.5751    0.9845    1.3379 H   0  0  0  0  0  0  0  0  0  0  0  0
   -0.7841    1.6238   -1.1387 H   0  0  0  0  0  0  0  0  0  0  0  0
   -0.4354    3.7957   -0.1201 H   0  0  0  0  0  0  0  0  0  0  0  0
   -0.2164    3.1279    1.3341 H   0  0  0  0  0  0  0  0  0  0  0  0
    1.5961    0.8698   -0.9554 H   0  0  0  0  0  0  0  0  0  0  0  0
    1.8468    1.9350    0.4308 H   0  0  0  0  0  0  0  0  0  0  0  0
    1.0490    2.7198   -2.6908 H   0  0  0  0  0  0  0  0  0  0  0  0
  1  2  1  0
  2  3  2  0
  2  4  1  0
  4  5  1  0
  4  6  1  0
  6  7  1  0
  1  8  1  0
  1  9  1  0
  1 10  1  0
  4 11  1  6
  5 12  1  0
  5 13  1  0
  6 14  1  0
  6 15  1  0
  7 16  1  0
M  END
