
     RDKit          3D

 28 27  0  0  0  0  0  0  0  0999 V2000
    2.3611    0.3223    0.8628 C   0  0  0  0  0  0  0  0  0  0  0  0
    2.2328    0.3452   -0.6602 C   0  0  1  0  0  0  0  0  0  0  0  0
    2.7399   -0.9136   -1.1903 N   0  0  0  0  0  0  0  0  0  0  0  0
    0.8088    0.6490   -1.0579 C   0  0  0  0  0  0  0  0  0  0  0  0
   -0.0308   -0.1226   -1.7699 C   0  0  0  0  0  0  0  0  0  0  0  0
   -1.4434    0.2589   -2.1021 C   0  0  0  0  0  0  0  0  0  0  0  0
   -2.4852   -0.3444   -1.1515 C   0  0  0  0  0  0  0  0  0  0  0  0
   -2.5568   -1.8705   -1.1675 C   0  0  0  0  0  0  0  0  0  0  0  0
   -1.4457   -2.5526   -0.3909 C   0  0  0  0  0  0  0  0  0  0  0  0
   -1.3665   -2.2989    1.0918 C   0  0  0  0  0  0  0  0  0  0  0  0
   -0.6365   -3.2922   -0.9533 O   0  0  0  0  0  0  0  0  0  0  0  0
    3.4005    0.1523    1.1663 H   0  0  0  0  0  0  0  0  0  0  0  0
    1.7457   -0.4673    1.3103 H   0  0  0  0  0  0  0  0  0  0  0  0
    2.0453    1.2777    1.2973 H   0  0  0  0  0  0  0  0  0  0  0  0
    2.8667    1.1515   -1.0475 H   0  0  0  0  0  0  0  0  0  0  0  0
    2.6523   -0.9079   -2.2048 H   0  0  0  0  0  0  0  0  0  0  0  0
    2.1581   -1.6833   -0.8581 H   0  0  0  0  0  0  0  0  0  0  0  0
    0.4458    1.6153   -0.7079 H   0  0  0  0  0  0  0  0  0  0  0  0
    0.2974   -1.0887   -2.1483 H   0  0  0  0  0  0  0  0  0  0  0  0
   -1.6568   -0.0486   -3.1330 H   0  0  0  0  0  0  0  0  0  0  0  0
   -1.5485    1.3511   -2.0848 H   0  0  0  0  0  0  0  0  0  0  0  0
   -2.3131    0.0257   -0.1341 H   0  0  0  0  0  0  0  0  0  0  0  0
   -3.4670    0.0404   -1.4559 H   0  0  0  0  0  0  0  0  0  0  0  0
   -2.5488   -2.2449   -2.1976 H   0  0  0  0  0  0  0  0  0  0  0  0
   -3.5029   -2.1990   -0.7210 H   0  0  0  0  0  0  0  0  0  0  0  0
   -0.7139   -3.0446    1.5546 H   0  0  0  0  0  0  0  0  0  0  0  0
   -0.9574   -1.3040    1.2788 H   0  0  0  0  0  0  0  0  0  0  0  0
   -2.3607   -2.3892    1.5366 H   0  0  0  0  0  0  0  0  0  0  0  0
  1  2  1  0
  2  3  1  0
  2  4  1  0
  4  5  2  0
  5  6  1  0
  6  7  1  0
  7  8  1  0
  8  9  1  0
  9 10  1  0
  9 11  2  0
  1 12  1  0
  1 13  1  0
  1 14  1  0
  2 15  1  6
  3 16  1  0
  3 17  1  0
  4 18  1  0
  5 19  1  0
  6 20  1  0
  6 21  1  0
  7 22  1  0
  7 23  1  0
  8 24  1  0
  8 25  1  0
 10 26  1  0
 10 27  1  0
 10 28  1  0
M  END
