
     RDKit          3D

 28 28  0  0  0  0  0  0  0  0999 V2000
   -2.1283   -1.7784    0.7198 C   0  0  0  0  0  0  0  0  0  0  0  0
   -0.8618   -1.4997    1.4826 C   0  0  0  0  0  0  0  0  0  0  0  0
   -0.8667   -1.6558    2.8793 C   0  0  0  0  0  0  0  0  0  0  0  0
    0.2870   -1.4335    3.6300 C   0  0  0  0  0  0  0  0  0  0  0  0
    1.4641   -1.0565    2.9949 C   0  0  0  0  0  0  0  0  0  0  0  0
    1.4865   -0.9006    1.6096 C   0  0  0  0  0  0  0  0  0  0  0  0
    0.3329   -1.1137    0.8360 C   0  0  0  0  0  0  0  0  0  0  0  0
    0.4181   -0.9204   -0.6677 C   0  0  0  0  0  0  0  0  0  0  0  0
   -0.1137    0.4497   -1.1552 C   0  0  2  0  0  0  0  0  0  0  0  0
   -0.7897    0.2822   -2.4597 N   0  0  0  0  0  0  0  0  0  0  0  0
    1.0044    1.5157   -1.3189 C   0  0  0  0  0  0  0  0  0  0  0  0
    1.6851    1.8822   -0.0803 N   0  0  0  0  0  0  0  0  0  0  0  0
   -1.9901   -2.6371    0.0556 H   0  0  0  0  0  0  0  0  0  0  0  0
   -2.9591   -2.0145    1.3935 H   0  0  0  0  0  0  0  0  0  0  0  0
   -2.4279   -0.9052    0.1336 H   0  0  0  0  0  0  0  0  0  0  0  0
   -1.7756   -1.9585    3.3950 H   0  0  0  0  0  0  0  0  0  0  0  0
    0.2667   -1.5589    4.7090 H   0  0  0  0  0  0  0  0  0  0  0  0
    2.3668   -0.8827    3.5739 H   0  0  0  0  0  0  0  0  0  0  0  0
    2.4163   -0.5993    1.1294 H   0  0  0  0  0  0  0  0  0  0  0  0
   -0.1437   -1.7420   -1.1318 H   0  0  0  0  0  0  0  0  0  0  0  0
    1.4503   -1.0739   -1.0101 H   0  0  0  0  0  0  0  0  0  0  0  0
   -0.8628    0.8384   -0.4543 H   0  0  0  0  0  0  0  0  0  0  0  0
   -1.2103    1.1682   -2.7378 H   0  0  0  0  0  0  0  0  0  0  0  0
   -1.5614   -0.3757   -2.3538 H   0  0  0  0  0  0  0  0  0  0  0  0
    1.7543    1.1637   -2.0374 H   0  0  0  0  0  0  0  0  0  0  0  0
    0.5654    2.4290   -1.7398 H   0  0  0  0  0  0  0  0  0  0  0  0
    1.0001    2.1335    0.6318 H   0  0  0  0  0  0  0  0  0  0  0  0
    2.2611    2.7069   -0.2399 H   0  0  0  0  0  0  0  0  0  0  0  0
  1  2  1  0
  2  3  2  0
  3  4  1  0
  4  5  2  0
  5  6  1  0
  6  7  2  0
  7  8  1  0
  8  9  1  0
  9 10  1  0
  9 11  1  0
 11 12  1  0
  7  2  1  0
  1 13  1  0
  1 14  1  0
  1 15  1  0
  3 16  1  0
  4 17  1  0
  5 18  1  0
  6 19  1  0
  8 20  1  0
  8 21  1  0
  9 22  1  1
 10 23  1  0
 10 24  1  0
 11 25  1  0
 11 26  1  0
 12 27  1  0
 12 28  1  0
M  END
