
     RDKit          3D

 39 39  0  0  0  0  0  0  0  0999 V2000
   -3.8462    2.6610   -0.4131 C   0  0  0  0  0  0  0  0  0  0  0  0
   -3.1435    1.6382    0.4211 C   0  0  0  0  0  0  0  0  0  0  0  0
   -2.1386    0.8700   -0.0337 C   0  0  0  0  0  0  0  0  0  0  0  0
   -1.3627   -0.1931    0.7160 C   0  0  0  0  0  0  0  0  0  0  0  0
   -1.9853   -0.5657    2.0799 C   0  0  0  0  0  0  0  0  0  0  0  0
   -1.3963   -1.4048   -0.1083 N   0  0  0  0  0  0  0  0  0  0  0  0
    0.1039    0.2544    0.9680 C   0  0  0  0  0  0  0  0  0  0  0  0
    0.9502    0.7883   -0.2053 C   0  0  0  0  0  0  0  0  0  0  0  0
    1.3976   -0.2642   -1.2437 C   0  0  0  0  0  0  0  0  0  0  0  0
    2.8999   -0.1330   -1.5438 C   0  0  0  0  0  0  0  0  0  0  0  0
    3.4029   -1.2490   -2.4639 C   0  0  0  0  0  0  0  0  0  0  0  0
    2.3322   -1.7889   -3.4107 C   0  0  0  0  0  0  0  0  0  0  0  0
    1.3263   -0.7122   -3.7854 C   0  0  0  0  0  0  0  0  0  0  0  0
    0.5970   -0.1510   -2.5600 C   0  0  0  0  0  0  0  0  0  0  0  0
   -3.7397    3.6499    0.0431 H   0  0  0  0  0  0  0  0  0  0  0  0
   -4.9125    2.4226   -0.4736 H   0  0  0  0  0  0  0  0  0  0  0  0
   -3.4494    2.7109   -1.4320 H   0  0  0  0  0  0  0  0  0  0  0  0
   -3.4957    1.5469    1.4445 H   0  0  0  0  0  0  0  0  0  0  0  0
   -1.8300    1.0086   -1.0701 H   0  0  0  0  0  0  0  0  0  0  0  0
   -1.9711    0.2839    2.7729 H   0  0  0  0  0  0  0  0  0  0  0  0
   -1.4305   -1.3805    2.5614 H   0  0  0  0  0  0  0  0  0  0  0  0
   -3.0264   -0.8959    1.9771 H   0  0  0  0  0  0  0  0  0  0  0  0
   -0.8795   -2.1492    0.3562 H   0  0  0  0  0  0  0  0  0  0  0  0
   -2.3592   -1.7319   -0.1791 H   0  0  0  0  0  0  0  0  0  0  0  0
    0.0803    1.0585    1.7185 H   0  0  0  0  0  0  0  0  0  0  0  0
    0.6593   -0.5662    1.4442 H   0  0  0  0  0  0  0  0  0  0  0  0
    0.4430    1.6323   -0.6854 H   0  0  0  0  0  0  0  0  0  0  0  0
    1.8459    1.2279    0.2547 H   0  0  0  0  0  0  0  0  0  0  0  0
    1.2470   -1.2674   -0.8249 H   0  0  0  0  0  0  0  0  0  0  0  0
    3.4852   -0.1511   -0.6165 H   0  0  0  0  0  0  0  0  0  0  0  0
    3.0933    0.8398   -2.0149 H   0  0  0  0  0  0  0  0  0  0  0  0
    4.2541   -0.8694   -3.0421 H   0  0  0  0  0  0  0  0  0  0  0  0
    3.7899   -2.0801   -1.8619 H   0  0  0  0  0  0  0  0  0  0  0  0
    1.8058   -2.6232   -2.9302 H   0  0  0  0  0  0  0  0  0  0  0  0
    2.8074   -2.1968   -4.3099 H   0  0  0  0  0  0  0  0  0  0  0  0
    1.8500    0.1042   -4.2989 H   0  0  0  0  0  0  0  0  0  0  0  0
    0.5945   -1.1077   -4.4990 H   0  0  0  0  0  0  0  0  0  0  0  0
   -0.3551   -0.6798   -2.4477 H   0  0  0  0  0  0  0  0  0  0  0  0
    0.3369    0.8930   -2.7737 H   0  0  0  0  0  0  0  0  0  0  0  0
  1  2  1  0
  2  3  2  0
  3  4  1  0
  4  5  1  0
  4  6  1  0
  4  7  1  0
  7  8  1  0
  8  9  1  0
  9 10  1  0
 10 11  1  0
 11 12  1  0
 12 13  1  0
 13 14  1  0
 14  9  1  0
  1 15  1  0
  1 16  1  0
  1 17  1  0
  2 18  1  0
  3 19  1  0
  5 20  1  0
  5 21  1  0
  5 22  1  0
  6 23  1  0
  6 24  1  0
  7 25  1  0
  7 26  1  0
  8 27  1  0
  8 28  1  0
  9 29  1  0
 10 30  1  0
 10 31  1  0
 11 32  1  0
 11 33  1  0
 12 34  1  0
 12 35  1  0
 13 36  1  0
 13 37  1  0
 14 38  1  0
 14 39  1  0
M  END
