
     RDKit          3D

 38 39  0  0  0  0  0  0  0  0999 V2000
    4.9611   -1.7667   -4.1856 C   0  0  0  0  0  0  0  0  0  0  0  0
    3.2889   -2.0408   -4.7109 S   0  0  0  0  0  6  0  0  0  0  0  0
    3.1010   -3.4775   -4.7980 O   0  0  0  0  0  0  0  0  0  0  0  0
    2.9947   -1.1955   -5.8487 O   0  0  0  0  0  0  0  0  0  0  0  0
    2.2791   -1.4625   -3.3622 C   0  0  0  0  0  0  0  0  0  0  0  0
    2.1621   -0.0998   -3.0686 C   0  0  0  0  0  0  0  0  0  0  0  0
    1.3148    0.3013   -2.0197 C   0  0  0  0  0  0  0  0  0  0  0  0
    0.5783   -0.6302   -1.2662 C   0  0  0  0  0  0  0  0  0  0  0  0
    0.7110   -1.9886   -1.5895 C   0  0  0  0  0  0  0  0  0  0  0  0
    1.5478   -2.4050   -2.6285 C   0  0  0  0  0  0  0  0  0  0  0  0
   -0.3069   -0.1926   -0.1741 C   0  0  0  0  0  0  0  0  0  0  0  0
   -1.2811    0.7938   -0.3827 C   0  0  0  0  0  0  0  0  0  0  0  0
   -2.1124    1.2025    0.6587 C   0  0  0  0  0  0  0  0  0  0  0  0
   -3.0406    2.1360    0.4073 F   0  0  0  0  0  0  0  0  0  0  0  0
   -2.0084    0.6529    1.9372 C   0  0  0  0  0  0  0  0  0  0  0  0
   -2.9174    1.0990    3.0607 C   0  0  0  0  0  0  0  0  0  0  0  0
   -4.3501    0.5278    2.9507 C   0  0  2  0  0  0  0  0  0  0  0  0
   -5.2205    1.4179    2.1611 N   0  0  0  0  0  0  0  0  0  0  0  0
   -4.9024    0.3083    4.3110 C   0  0  0  0  0  0  0  0  0  0  0  0
   -5.3230    0.1049    5.3745 N   0  0  0  0  0  0  0  0  0  0  0  0
   -1.0415   -0.3355    2.1543 C   0  0  0  0  0  0  0  0  0  0  0  0
   -0.2037   -0.7502    1.1117 C   0  0  0  0  0  0  0  0  0  0  0  0
    2.8932    0.9203   -3.7621 C   0  0  0  0  0  0  0  0  0  0  0  0
    3.5249    1.7531   -4.2645 N   0  0  0  0  0  0  0  0  0  0  0  0
    5.1256   -2.2922   -3.2428 H   0  0  0  0  0  0  0  0  0  0  0  0
    5.6238   -2.1732   -4.9531 H   0  0  0  0  0  0  0  0  0  0  0  0
    5.1503   -0.7001   -4.0715 H   0  0  0  0  0  0  0  0  0  0  0  0
    1.2353    1.3628   -1.7778 H   0  0  0  0  0  0  0  0  0  0  0  0
    0.1423   -2.7408   -1.0433 H   0  0  0  0  0  0  0  0  0  0  0  0
    1.6065   -3.4675   -2.8619 H   0  0  0  0  0  0  0  0  0  0  0  0
   -1.4167    1.2499   -1.3601 H   0  0  0  0  0  0  0  0  0  0  0  0
   -2.9320    2.1972    3.0988 H   0  0  0  0  0  0  0  0  0  0  0  0
   -2.4583    0.7944    4.0119 H   0  0  0  0  0  0  0  0  0  0  0  0
   -4.3193   -0.4459    2.4453 H   0  0  0  0  0  0  0  0  0  0  0  0
   -4.7908    1.6008    1.2528 H   0  0  0  0  0  0  0  0  0  0  0  0
   -6.1096    0.9538    1.9785 H   0  0  0  0  0  0  0  0  0  0  0  0
   -0.9225   -0.7892    3.1369 H   0  0  0  0  0  0  0  0  0  0  0  0
    0.5474   -1.5113    1.3197 H   0  0  0  0  0  0  0  0  0  0  0  0
  1  2  1  0
  2  3  2  0
  2  4  2  0
  2  5  1  0
  5  6  2  0
  6  7  1  0
  7  8  2  0
  8  9  1  0
  9 10  2  0
  8 11  1  0
 11 12  2  0
 12 13  1  0
 13 14  1  0
 13 15  2  0
 15 16  1  0
 16 17  1  0
 17 18  1  0
 17 19  1  0
 19 20  3  0
 15 21  1  0
 21 22  2  0
  6 23  1  0
 23 24  3  0
 10  5  1  0
 22 11  1  0
  1 25  1  0
  1 26  1  0
  1 27  1  0
  7 28  1  0
  9 29  1  0
 10 30  1  0
 12 31  1  0
 16 32  1  0
 16 33  1  0
 17 34  1  6
 18 35  1  0
 18 36  1  0
 21 37  1  0
 22 38  1  0
M  END
