
     RDKit          3D

 51 50  0  0  0  0  0  0  0  0999 V2000
    4.0808    2.2545    3.2285 C   0  0  0  0  0  0  0  0  0  0  0  0
    3.5856    1.4516    2.0357 C   0  0  0  0  0  0  0  0  0  0  0  0
    2.3186    2.0637    1.4379 C   0  0  0  0  0  0  0  0  0  0  0  0
    1.8430    1.3528    0.1674 C   0  0  0  0  0  0  0  0  0  0  0  0
    1.4838   -0.1278    0.3310 C   0  0  0  0  0  0  0  0  0  0  0  0
    0.4130   -0.4378    1.3820 C   0  0  0  0  0  0  0  0  0  0  0  0
   -0.9296    0.2343    1.0886 C   0  0  0  0  0  0  0  0  0  0  0  0
   -2.0076   -0.2160    2.0768 C   0  0  0  0  0  0  0  0  0  0  0  0
   -3.3862    0.3808    1.7697 C   0  0  0  0  0  0  0  0  0  0  0  0
   -4.3224   -0.5566    0.9965 C   0  0  0  0  0  0  0  0  0  0  0  0
   -3.9170   -0.8907   -0.4432 C   0  0  0  0  0  0  0  0  0  0  0  0
   -3.9437    0.3280   -1.3662 C   0  0  0  0  0  0  0  0  0  0  0  0
   -3.6936   -0.1617   -3.1057 S   0  0  0  0  0  0  0  0  0  0  0  0
   -1.8599   -0.2752   -3.1488 C   0  0  0  0  0  0  0  0  0  0  0  0
   -1.3310   -1.3948   -4.0654 C   0  0  2  0  0  0  0  0  0  0  0  0
   -1.8628   -1.2949   -5.4450 N   0  0  0  0  0  0  0  0  0  0  0  0
   -1.6233   -2.7960   -3.4850 C   0  0  0  0  0  0  0  0  0  0  0  0
   -1.0775   -3.0707   -2.2633 N   0  0  0  0  0  0  0  0  0  0  0  0
   -2.2708   -3.6605   -4.0715 O   0  0  0  0  0  0  0  0  0  0  0  0
    3.3273    2.2793    4.0230 H   0  0  0  0  0  0  0  0  0  0  0  0
    4.3119    3.2857    2.9399 H   0  0  0  0  0  0  0  0  0  0  0  0
    4.9909    1.8033    3.6366 H   0  0  0  0  0  0  0  0  0  0  0  0
    4.3740    1.4125    1.2757 H   0  0  0  0  0  0  0  0  0  0  0  0
    3.3950    0.4236    2.3615 H   0  0  0  0  0  0  0  0  0  0  0  0
    1.5190    2.0724    2.1873 H   0  0  0  0  0  0  0  0  0  0  0  0
    2.5134    3.1138    1.1853 H   0  0  0  0  0  0  0  0  0  0  0  0
    0.9783    1.8946   -0.2343 H   0  0  0  0  0  0  0  0  0  0  0  0
    2.6268    1.4331   -0.5969 H   0  0  0  0  0  0  0  0  0  0  0  0
    2.3883   -0.6977    0.5741 H   0  0  0  0  0  0  0  0  0  0  0  0
    1.1441   -0.5078   -0.6411 H   0  0  0  0  0  0  0  0  0  0  0  0
    0.2713   -1.5258    1.4069 H   0  0  0  0  0  0  0  0  0  0  0  0
    0.7649   -0.1507    2.3789 H   0  0  0  0  0  0  0  0  0  0  0  0
   -0.8258    1.3237    1.1487 H   0  0  0  0  0  0  0  0  0  0  0  0
   -1.2308   -0.0020    0.0668 H   0  0  0  0  0  0  0  0  0  0  0  0
   -1.7040    0.1153    3.0783 H   0  0  0  0  0  0  0  0  0  0  0  0
   -2.0633   -1.3106    2.1142 H   0  0  0  0  0  0  0  0  0  0  0  0
   -3.2943    1.3480    1.2628 H   0  0  0  0  0  0  0  0  0  0  0  0
   -3.8754    0.5898    2.7308 H   0  0  0  0  0  0  0  0  0  0  0  0
   -5.3238   -0.1077    0.9832 H   0  0  0  0  0  0  0  0  0  0  0  0
   -4.4207   -1.4965    1.5558 H   0  0  0  0  0  0  0  0  0  0  0  0
   -2.9350   -1.3742   -0.4523 H   0  0  0  0  0  0  0  0  0  0  0  0
   -4.6301   -1.6389   -0.8153 H   0  0  0  0  0  0  0  0  0  0  0  0
   -4.9244    0.8112   -1.3079 H   0  0  0  0  0  0  0  0  0  0  0  0
   -3.1946    1.0740   -1.0874 H   0  0  0  0  0  0  0  0  0  0  0  0
   -1.4782   -0.4160   -2.1346 H   0  0  0  0  0  0  0  0  0  0  0  0
   -1.4890    0.6937   -3.5039 H   0  0  0  0  0  0  0  0  0  0  0  0
   -0.2391   -1.3093   -4.1307 H   0  0  0  0  0  0  0  0  0  0  0  0
   -2.8833   -1.2359   -5.3590 H   0  0  0  0  0  0  0  0  0  0  0  0
   -1.7213   -2.2057   -5.8938 H   0  0  0  0  0  0  0  0  0  0  0  0
   -0.2813   -2.5563   -1.9134 H   0  0  0  0  0  0  0  0  0  0  0  0
   -1.1839   -4.0279   -1.9463 H   0  0  0  0  0  0  0  0  0  0  0  0
  1  2  1  0
  2  3  1  0
  3  4  1  0
  4  5  1  0
  5  6  1  0
  6  7  1  0
  7  8  1  0
  8  9  1  0
  9 10  1  0
 10 11  1  0
 11 12  1  0
 12 13  1  0
 13 14  1  0
 14 15  1  0
 15 16  1  0
 15 17  1  0
 17 18  1  0
 17 19  2  0
  1 20  1  0
  1 21  1  0
  1 22  1  0
  2 23  1  0
  2 24  1  0
  3 25  1  0
  3 26  1  0
  4 27  1  0
  4 28  1  0
  5 29  1  0
  5 30  1  0
  6 31  1  0
  6 32  1  0
  7 33  1  0
  7 34  1  0
  8 35  1  0
  8 36  1  0
  9 37  1  0
  9 38  1  0
 10 39  1  0
 10 40  1  0
 11 41  1  0
 11 42  1  0
 12 43  1  0
 12 44  1  0
 14 45  1  0
 14 46  1  0
 15 47  1  6
 16 48  1  0
 16 49  1  0
 18 50  1  0
 18 51  1  0
M  END
