
     RDKit          3D

 25 25  0  0  0  0  0  0  0  0999 V2000
   -0.0348    2.8447   -1.2822 N   0  0  0  0  0  0  0  0  0  0  0  0
   -0.5161    1.4792   -0.9713 C   0  0  1  0  0  0  0  0  0  0  0  0
   -0.9551    1.3081    0.4939 C   0  0  0  0  0  0  0  0  0  0  0  0
    0.3989    1.5088    1.7138 S   0  0  0  0  0  0  0  0  0  0  0  0
    1.3680    0.0639    1.3337 C   0  0  0  0  0  0  0  0  0  0  0  0
    2.6170    0.2131    0.7231 C   0  0  0  0  0  0  0  0  0  0  0  0
    3.3888   -0.9094    0.4129 C   0  0  0  0  0  0  0  0  0  0  0  0
    2.9122   -2.1815    0.7231 C   0  0  0  0  0  0  0  0  0  0  0  0
    3.9530   -3.7021    0.3031 Br  0  0  0  0  0  0  0  0  0  0  0  0
    1.6741   -2.3410    1.3434 C   0  0  0  0  0  0  0  0  0  0  0  0
    0.9036   -1.2167    1.6510 C   0  0  0  0  0  0  0  0  0  0  0  0
   -1.7188    1.1469   -1.8739 C   0  0  0  0  0  0  0  0  0  0  0  0
   -1.9869   -0.1824   -2.0398 N   0  0  0  0  0  0  0  0  0  0  0  0
   -2.4213    1.9965   -2.4146 O   0  0  0  0  0  0  0  0  0  0  0  0
    0.1110    2.9109   -2.2913 H   0  0  0  0  0  0  0  0  0  0  0  0
   -0.8062    3.4944   -1.1065 H   0  0  0  0  0  0  0  0  0  0  0  0
    0.2846    0.7754   -1.2248 H   0  0  0  0  0  0  0  0  0  0  0  0
   -1.4227    0.3294    0.6503 H   0  0  0  0  0  0  0  0  0  0  0  0
   -1.7228    2.0518    0.7401 H   0  0  0  0  0  0  0  0  0  0  0  0
    2.9944    1.2049    0.4804 H   0  0  0  0  0  0  0  0  0  0  0  0
    4.3566   -0.7780   -0.0640 H   0  0  0  0  0  0  0  0  0  0  0  0
    1.3051   -3.3308    1.5994 H   0  0  0  0  0  0  0  0  0  0  0  0
   -0.0528   -1.3488    2.1514 H   0  0  0  0  0  0  0  0  0  0  0  0
   -1.2797   -0.8872   -1.8757 H   0  0  0  0  0  0  0  0  0  0  0  0
   -2.7125   -0.4059   -2.7109 H   0  0  0  0  0  0  0  0  0  0  0  0
  1  2  1  0
  2  3  1  0
  3  4  1  0
  4  5  1  0
  5  6  2  0
  6  7  1  0
  7  8  2  0
  8  9  1  0
  8 10  1  0
 10 11  2  0
  2 12  1  0
 12 13  1  0
 12 14  2  0
 11  5  1  0
  1 15  1  0
  1 16  1  0
  2 17  1  6
  3 18  1  0
  3 19  1  0
  6 20  1  0
  7 21  1  0
 10 22  1  0
 11 23  1  0
 13 24  1  0
 13 25  1  0
M  END
