
     RDKit          3D

 31 31  0  0  0  0  0  0  0  0999 V2000
   -1.1350    4.6510    0.5518 N   0  0  0  0  0  0  0  0  0  0  0  0
   -1.1380    3.8033   -0.6621 C   0  0  1  0  0  0  0  0  0  0  0  0
    0.2160    3.1077   -0.8986 C   0  0  0  0  0  0  0  0  0  0  0  0
    0.9392    2.2345    0.5498 S   0  0  0  0  0  0  0  0  0  0  0  0
    0.0027    0.6704    0.4839 C   0  0  0  0  0  0  0  0  0  0  0  0
    0.6126   -0.3505    1.4459 C   0  0  0  0  0  0  0  0  0  0  0  0
   -0.1225   -1.6688    1.3781 C   0  0  0  0  0  0  0  0  0  0  0  0
    0.3746   -2.7219    0.5988 C   0  0  0  0  0  0  0  0  0  0  0  0
   -0.3172   -3.9318    0.5225 C   0  0  0  0  0  0  0  0  0  0  0  0
   -1.5122   -4.0986    1.2199 C   0  0  0  0  0  0  0  0  0  0  0  0
   -2.0174   -3.0557    1.9940 C   0  0  0  0  0  0  0  0  0  0  0  0
   -1.3272   -1.8453    2.0725 C   0  0  0  0  0  0  0  0  0  0  0  0
   -2.3128    2.8086   -0.6120 C   0  0  0  0  0  0  0  0  0  0  0  0
   -2.5364    2.0811   -1.7464 N   0  0  0  0  0  0  0  0  0  0  0  0
   -3.0443    2.6656    0.3648 O   0  0  0  0  0  0  0  0  0  0  0  0
   -0.7260    4.0946    1.3091 H   0  0  0  0  0  0  0  0  0  0  0  0
   -2.1084    4.7815    0.8434 H   0  0  0  0  0  0  0  0  0  0  0  0
   -1.3410    4.4647   -1.5138 H   0  0  0  0  0  0  0  0  0  0  0  0
    0.1700    2.4095   -1.7408 H   0  0  0  0  0  0  0  0  0  0  0  0
    0.9501    3.8748   -1.1723 H   0  0  0  0  0  0  0  0  0  0  0  0
   -1.0367    0.8632    0.7606 H   0  0  0  0  0  0  0  0  0  0  0  0
    0.0239    0.2831   -0.5405 H   0  0  0  0  0  0  0  0  0  0  0  0
    0.5791    0.0199    2.4790 H   0  0  0  0  0  0  0  0  0  0  0  0
    1.6725   -0.5160    1.2128 H   0  0  0  0  0  0  0  0  0  0  0  0
    1.3055   -2.6076    0.0480 H   0  0  0  0  0  0  0  0  0  0  0  0
    0.0775   -4.7454   -0.0804 H   0  0  0  0  0  0  0  0  0  0  0  0
   -2.0494   -5.0414    1.1613 H   0  0  0  0  0  0  0  0  0  0  0  0
   -2.9495   -3.1842    2.5381 H   0  0  0  0  0  0  0  0  0  0  0  0
   -1.7354   -1.0394    2.6792 H   0  0  0  0  0  0  0  0  0  0  0  0
   -3.3759    1.5130   -1.7400 H   0  0  0  0  0  0  0  0  0  0  0  0
   -2.2094    2.3988   -2.6489 H   0  0  0  0  0  0  0  0  0  0  0  0
  1  2  1  0
  2  3  1  0
  3  4  1  0
  4  5  1  0
  5  6  1  0
  6  7  1  0
  7  8  2  0
  8  9  1  0
  9 10  2  0
 10 11  1  0
 11 12  2  0
  2 13  1  0
 13 14  1  0
 13 15  2  0
 12  7  1  0
  1 16  1  0
  1 17  1  0
  2 18  1  6
  3 19  1  0
  3 20  1  0
  5 21  1  0
  5 22  1  0
  6 23  1  0
  6 24  1  0
  8 25  1  0
  9 26  1  0
 10 27  1  0
 11 28  1  0
 12 29  1  0
 14 30  1  0
 14 31  1  0
M  END
