
     RDKit          3D

 24 23  0  0  0  0  0  0  0  0999 V2000
    1.6517   -0.4481   -2.0122 C   0  0  0  0  0  0  0  0  0  0  0  0
    1.1037   -0.1481   -0.6211 C   0  0  0  0  0  0  0  0  0  0  0  0
    2.2315    0.3069    0.3049 C   0  0  0  0  0  0  0  0  0  0  0  0
   -0.1579    1.1836   -0.6703 S   0  0  0  0  0  0  0  0  0  0  0  0
   -1.5674    0.3272   -1.4917 C   0  0  0  0  0  0  0  0  0  0  0  0
   -2.3946   -0.6071   -0.5875 C   0  0  2  0  0  0  0  0  0  0  0  0
   -2.5722   -0.1021    0.8051 N   0  0  0  0  0  0  0  0  0  0  0  0
   -1.8371   -2.0423   -0.5569 C   0  0  0  0  0  0  0  0  0  0  0  0
   -2.2778   -2.7828    0.5068 N   0  0  0  0  0  0  0  0  0  0  0  0
   -1.1154   -2.5329   -1.4169 O   0  0  0  0  0  0  0  0  0  0  0  0
    2.4375   -1.2098   -1.9543 H   0  0  0  0  0  0  0  0  0  0  0  0
    2.0914    0.4419   -2.4764 H   0  0  0  0  0  0  0  0  0  0  0  0
    0.8808   -0.8382   -2.6825 H   0  0  0  0  0  0  0  0  0  0  0  0
    0.6606   -1.0469   -0.1865 H   0  0  0  0  0  0  0  0  0  0  0  0
    1.8618    0.5043    1.3175 H   0  0  0  0  0  0  0  0  0  0  0  0
    2.9958   -0.4742    0.3862 H   0  0  0  0  0  0  0  0  0  0  0  0
    2.7255    1.2127   -0.0652 H   0  0  0  0  0  0  0  0  0  0  0  0
   -2.2269    1.1402   -1.8182 H   0  0  0  0  0  0  0  0  0  0  0  0
   -1.2259   -0.1715   -2.4024 H   0  0  0  0  0  0  0  0  0  0  0  0
   -3.3946   -0.7057   -1.0300 H   0  0  0  0  0  0  0  0  0  0  0  0
   -1.6381    0.1589    1.1405 H   0  0  0  0  0  0  0  0  0  0  0  0
   -3.0578    0.7958    0.7475 H   0  0  0  0  0  0  0  0  0  0  0  0
   -2.6464   -2.2616    1.2978 H   0  0  0  0  0  0  0  0  0  0  0  0
   -1.8626   -3.6902    0.6604 H   0  0  0  0  0  0  0  0  0  0  0  0
  1  2  1  0
  2  3  1  0
  2  4  1  0
  4  5  1  0
  5  6  1  0
  6  7  1  0
  6  8  1  0
  8  9  1  0
  8 10  2  0
  1 11  1  0
  1 12  1  0
  1 13  1  0
  2 14  1  0
  3 15  1  0
  3 16  1  0
  3 17  1  0
  5 18  1  0
  5 19  1  0
  6 20  1  6
  7 21  1  0
  7 22  1  0
  9 23  1  0
  9 24  1  0
M  END
