
     RDKit          3D

 31 31  0  0  0  0  0  0  0  0999 V2000
   -2.0839   -0.6153    3.2830 N   0  0  0  0  0  0  0  0  0  0  0  0
   -0.8605   -1.0852    2.5708 C   0  0  1  0  0  0  0  0  0  0  0  0
    0.0677    0.0619    2.1370 C   0  0  0  0  0  0  0  0  0  0  0  0
   -0.7939    1.3517    1.1518 S   0  0  0  0  0  0  0  0  0  0  0  0
   -0.3693    0.8922   -0.5804 C   0  0  0  0  0  0  0  0  0  0  0  0
   -0.8914   -0.4860   -1.0167 C   0  0  0  0  0  0  0  0  0  0  0  0
    0.2175   -1.5221   -1.1664 C   0  0  0  0  0  0  0  0  0  0  0  0
    1.3043   -1.0737   -2.1452 C   0  0  0  0  0  0  0  0  0  0  0  0
    1.5094    0.4412   -2.1942 C   0  0  0  0  0  0  0  0  0  0  0  0
    1.1200    1.1158   -0.8829 C   0  0  0  0  0  0  0  0  0  0  0  0
   -0.0967   -2.0655    3.4798 C   0  0  0  0  0  0  0  0  0  0  0  0
   -0.9079   -2.9419    4.1496 N   0  0  0  0  0  0  0  0  0  0  0  0
    1.1229   -2.1174    3.5832 O   0  0  0  0  0  0  0  0  0  0  0  0
   -1.7839   -0.0260    4.0633 H   0  0  0  0  0  0  0  0  0  0  0  0
   -2.5511    0.0431    2.6506 H   0  0  0  0  0  0  0  0  0  0  0  0
   -1.1794   -1.6645    1.6981 H   0  0  0  0  0  0  0  0  0  0  0  0
    0.9418   -0.3210    1.6059 H   0  0  0  0  0  0  0  0  0  0  0  0
    0.4557    0.5697    3.0287 H   0  0  0  0  0  0  0  0  0  0  0  0
   -0.9282    1.6278   -1.1739 H   0  0  0  0  0  0  0  0  0  0  0  0
   -1.3689   -0.3735   -2.0002 H   0  0  0  0  0  0  0  0  0  0  0  0
   -1.6817   -0.8569   -0.3562 H   0  0  0  0  0  0  0  0  0  0  0  0
    0.6723   -1.7196   -0.1898 H   0  0  0  0  0  0  0  0  0  0  0  0
   -0.2042   -2.4762   -1.5033 H   0  0  0  0  0  0  0  0  0  0  0  0
    1.0616   -1.4269   -3.1550 H   0  0  0  0  0  0  0  0  0  0  0  0
    2.2456   -1.5654   -1.8709 H   0  0  0  0  0  0  0  0  0  0  0  0
    0.9043    0.8621   -3.0073 H   0  0  0  0  0  0  0  0  0  0  0  0
    2.5543    0.6630   -2.4394 H   0  0  0  0  0  0  0  0  0  0  0  0
    1.3248    2.1914   -0.9515 H   0  0  0  0  0  0  0  0  0  0  0  0
    1.7668    0.7257   -0.0900 H   0  0  0  0  0  0  0  0  0  0  0  0
   -1.8775   -2.6588    4.2625 H   0  0  0  0  0  0  0  0  0  0  0  0
   -0.4827   -3.5168    4.8631 H   0  0  0  0  0  0  0  0  0  0  0  0
  1  2  1  0
  2  3  1  0
  3  4  1  0
  4  5  1  0
  5  6  1  0
  6  7  1  0
  7  8  1  0
  8  9  1  0
  9 10  1  0
  2 11  1  0
 11 12  1  0
 11 13  2  0
 10  5  1  0
  1 14  1  0
  1 15  1  0
  2 16  1  6
  3 17  1  0
  3 18  1  0
  5 19  1  0
  6 20  1  0
  6 21  1  0
  7 22  1  0
  7 23  1  0
  8 24  1  0
  8 25  1  0
  9 26  1  0
  9 27  1  0
 10 28  1  0
 10 29  1  0
 12 30  1  0
 12 31  1  0
M  END
