
     RDKit          3D

 26 25  0  0  0  0  0  0  0  0999 V2000
    1.6571    1.3081    0.0608 C   0  0  0  0  0  0  0  0  0  0  0  0
    1.5009    0.0716   -0.8374 C   0  0  0  0  0  0  0  0  0  0  0  0
    2.9113   -0.4690   -1.1560 C   0  0  0  0  0  0  0  0  0  0  0  0
    0.8355    0.4896   -2.1598 C   0  0  0  0  0  0  0  0  0  0  0  0
    0.6999   -1.0707   -0.1477 C   0  0  0  0  0  0  0  0  0  0  0  0
   -0.7628   -0.7869    0.2460 C   0  0  2  0  0  0  0  0  0  0  0  0
   -0.8546    0.0927    1.4265 N   0  0  0  0  0  0  0  0  0  0  0  0
   -1.4961   -2.1149    0.5535 C   0  0  0  0  0  0  0  0  0  0  0  0
   -1.7527   -2.9150   -0.5222 N   0  0  0  0  0  0  0  0  0  0  0  0
   -1.8472   -2.4556    1.6804 O   0  0  0  0  0  0  0  0  0  0  0  0
    0.7074    1.8336    0.2002 H   0  0  0  0  0  0  0  0  0  0  0  0
    2.0488    1.0350    1.0467 H   0  0  0  0  0  0  0  0  0  0  0  0
    2.3534    2.0300   -0.3822 H   0  0  0  0  0  0  0  0  0  0  0  0
    3.5253    0.2885   -1.6564 H   0  0  0  0  0  0  0  0  0  0  0  0
    2.8617   -1.3425   -1.8160 H   0  0  0  0  0  0  0  0  0  0  0  0
    3.4349   -0.7696   -0.2414 H   0  0  0  0  0  0  0  0  0  0  0  0
    0.6729   -0.3759   -2.8116 H   0  0  0  0  0  0  0  0  0  0  0  0
    1.4615    1.2040   -2.7070 H   0  0  0  0  0  0  0  0  0  0  0  0
   -0.1325    0.9727   -1.9930 H   0  0  0  0  0  0  0  0  0  0  0  0
    0.7185   -1.9403   -0.8196 H   0  0  0  0  0  0  0  0  0  0  0  0
    1.2468   -1.4009    0.7478 H   0  0  0  0  0  0  0  0  0  0  0  0
   -1.3040   -0.3110   -0.5779 H   0  0  0  0  0  0  0  0  0  0  0  0
   -1.8405    0.1638    1.6889 H   0  0  0  0  0  0  0  0  0  0  0  0
   -0.4405   -0.4102    2.2166 H   0  0  0  0  0  0  0  0  0  0  0  0
   -1.6570   -2.5905   -1.4744 H   0  0  0  0  0  0  0  0  0  0  0  0
   -2.2955   -3.7521   -0.3522 H   0  0  0  0  0  0  0  0  0  0  0  0
  1  2  1  0
  2  3  1  0
  2  4  1  0
  2  5  1  0
  5  6  1  0
  6  7  1  0
  6  8  1  0
  8  9  1  0
  8 10  2  0
  1 11  1  0
  1 12  1  0
  1 13  1  0
  3 14  1  0
  3 15  1  0
  3 16  1  0
  4 17  1  0
  4 18  1  0
  4 19  1  0
  5 20  1  0
  5 21  1  0
  6 22  1  6
  7 23  1  0
  7 24  1  0
  9 25  1  0
  9 26  1  0
M  END
