
     RDKit          3D

 39 40  0  0  0  0  0  0  0  0999 V2000
    1.4947   -1.4188    1.8967 C   0  0  0  0  0  0  0  0  0  0  0  0
    1.6307   -1.8625    0.4451 C   0  0  0  0  0  0  0  0  0  0  0  0
    0.5221   -2.8571    0.0909 C   0  0  0  0  0  0  0  0  0  0  0  0
    1.7895   -0.7304   -0.5905 C   0  0  2  0  0  0  0  0  0  0  0  0
    3.1321   -0.1121   -0.4793 N   0  0  0  0  0  0  0  0  0  0  0  0
    0.5886    0.7126   -0.7459 P   0  0  0  0  0  5  0  0  0  0  0  0
    1.0922    1.7218   -2.4026 S   0  0  0  0  0  0  0  0  0  0  0  0
    0.6067    1.8104    0.7037 C   0  0  0  0  0  0  0  0  0  0  0  0
   -0.4697    2.7023    0.8849 C   0  0  0  0  0  0  0  0  0  0  0  0
   -0.5037    3.5922    1.9601 C   0  0  0  0  0  0  0  0  0  0  0  0
    0.5529    3.6284    2.8630 C   0  0  0  0  0  0  0  0  0  0  0  0
    1.6475    2.7896    2.6768 C   0  0  0  0  0  0  0  0  0  0  0  0
    1.6788    1.8999    1.5984 C   0  0  0  0  0  0  0  0  0  0  0  0
   -1.0537   -0.0800   -0.8242 C   0  0  0  0  0  0  0  0  0  0  0  0
   -1.8772   -0.2091    0.3066 C   0  0  0  0  0  0  0  0  0  0  0  0
   -3.1303   -0.8195    0.2145 C   0  0  0  0  0  0  0  0  0  0  0  0
   -3.5777   -1.3156   -1.0068 C   0  0  0  0  0  0  0  0  0  0  0  0
   -2.7732   -1.2033   -2.1370 C   0  0  0  0  0  0  0  0  0  0  0  0
   -1.5213   -0.5918   -2.0470 C   0  0  0  0  0  0  0  0  0  0  0  0
    1.4158   -2.2897    2.5576 H   0  0  0  0  0  0  0  0  0  0  0  0
    0.6005   -0.8115    2.0540 H   0  0  0  0  0  0  0  0  0  0  0  0
    2.3728   -0.8555    2.2231 H   0  0  0  0  0  0  0  0  0  0  0  0
    2.5557   -2.4568    0.3941 H   0  0  0  0  0  0  0  0  0  0  0  0
    0.6735   -3.7954    0.6373 H   0  0  0  0  0  0  0  0  0  0  0  0
    0.5257   -3.0994   -0.9765 H   0  0  0  0  0  0  0  0  0  0  0  0
   -0.4677   -2.4955    0.3669 H   0  0  0  0  0  0  0  0  0  0  0  0
    1.7535   -1.2004   -1.5826 H   0  0  0  0  0  0  0  0  0  0  0  0
    3.8461   -0.8186   -0.6600 H   0  0  0  0  0  0  0  0  0  0  0  0
    3.2351    0.5727   -1.2398 H   0  0  0  0  0  0  0  0  0  0  0  0
   -1.2921    2.7160    0.1708 H   0  0  0  0  0  0  0  0  0  0  0  0
   -1.3480    4.2661    2.0816 H   0  0  0  0  0  0  0  0  0  0  0  0
    0.5352    4.3250    3.6968 H   0  0  0  0  0  0  0  0  0  0  0  0
    2.4903    2.8367    3.3623 H   0  0  0  0  0  0  0  0  0  0  0  0
    2.5701    1.2953    1.4666 H   0  0  0  0  0  0  0  0  0  0  0  0
   -1.5526    0.1525    1.2794 H   0  0  0  0  0  0  0  0  0  0  0  0
   -3.7566   -0.9099    1.0988 H   0  0  0  0  0  0  0  0  0  0  0  0
   -4.5536   -1.7890   -1.0782 H   0  0  0  0  0  0  0  0  0  0  0  0
   -3.1218   -1.5872   -3.0929 H   0  0  0  0  0  0  0  0  0  0  0  0
   -0.9151   -0.5127   -2.9476 H   0  0  0  0  0  0  0  0  0  0  0  0
  1  2  1  0
  2  3  1  0
  2  4  1  0
  4  5  1  0
  4  6  1  0
  6  7  2  0
  6  8  1  0
  8  9  2  0
  9 10  1  0
 10 11  2  0
 11 12  1  0
 12 13  2  0
  6 14  1  0
 14 15  2  0
 15 16  1  0
 16 17  2  0
 17 18  1  0
 18 19  2  0
 13  8  1  0
 19 14  1  0
  1 20  1  0
  1 21  1  0
  1 22  1  0
  2 23  1  0
  3 24  1  0
  3 25  1  0
  3 26  1  0
  4 27  1  6
  5 28  1  0
  5 29  1  0
  9 30  1  0
 10 31  1  0
 11 32  1  0
 12 33  1  0
 13 34  1  0
 15 35  1  0
 16 36  1  0
 17 37  1  0
 18 38  1  0
 19 39  1  0
M  END
