
     RDKit          3D

 17 16  0  0  0  0  0  0  0  0999 V2000
    0.9219   -0.6185   -1.3297 N   0  0  0  0  0  0  0  0  0  0  0  0
    0.7196   -0.0139    0.0065 C   0  0  1  0  0  0  0  0  0  0  0  0
    0.8378    1.5168    0.0127 C   0  0  0  0  0  0  0  0  0  0  0  0
   -0.1998    2.3493   -1.2368 S   0  0  0  0  0  0  0  0  0  0  0  0
   -0.6423   -0.4331    0.5778 C   0  0  0  0  0  0  0  0  0  0  0  0
   -0.7632   -0.5820    1.7964 O   0  0  0  0  0  0  0  0  0  0  0  0
   -2.1701   -0.7221   -0.3107 S   0  0  0  0  0  4  0  0  0  0  0  0
   -3.7254    0.2104    0.7208 S   0  0  0  0  0  0  0  0  0  0  0  0
    1.8372   -0.3386   -1.6863 H   0  0  0  0  0  0  0  0  0  0  0  0
    0.9677   -1.6349   -1.2333 H   0  0  0  0  0  0  0  0  0  0  0  0
    1.4850   -0.4284    0.6741 H   0  0  0  0  0  0  0  0  0  0  0  0
    0.5720    1.9233    0.9943 H   0  0  0  0  0  0  0  0  0  0  0  0
    1.8757    1.8010   -0.1924 H   0  0  0  0  0  0  0  0  0  0  0  0
    0.1021    1.5114   -2.2429 H   0  0  0  0  0  0  0  0  0  0  0  0
   -2.3950   -2.0548   -0.3584 H   0  0  0  0  0  0  0  0  0  0  0  0
   -2.0547   -0.1777   -1.5439 H   0  0  0  0  0  0  0  0  0  0  0  0
   -3.1479    0.2025    1.9345 H   0  0  0  0  0  0  0  0  0  0  0  0
  1  2  1  0
  2  3  1  0
  3  4  1  0
  2  5  1  0
  5  6  2  0
  5  7  1  0
  7  8  1  0
  1  9  1  0
  1 10  1  0
  2 11  1  1
  3 12  1  0
  3 13  1  0
  4 14  1  0
  7 15  1  0
  7 16  1  0
  8 17  1  0
M  END
