
     RDKit          3D

 26 26  0  0  0  0  0  0  0  0999 V2000
   -2.9150   -0.1332    0.4101 C   0  0  1  0  0  0  0  0  0  0  0  0
   -3.7104    1.1672    0.5440 C   0  0  0  0  0  0  0  0  0  0  0  0
   -3.0320   -0.6152   -0.9744 N   0  0  0  0  0  0  0  0  0  0  0  0
   -1.4272   -0.0281    0.8722 C   0  0  2  0  0  0  0  0  0  0  0  0
   -1.3345    0.0560    2.4056 C   0  0  0  0  0  0  0  0  0  0  0  0
   -0.6198    1.0591    0.1686 C   0  0  0  0  0  0  0  0  0  0  0  0
   -0.4842    2.3579    0.6837 C   0  0  0  0  0  0  0  0  0  0  0  0
    0.2674    3.3230    0.0075 C   0  0  0  0  0  0  0  0  0  0  0  0
    0.8919    3.0076   -1.1962 C   0  0  0  0  0  0  0  0  0  0  0  0
    0.7617    1.7279   -1.7273 C   0  0  0  0  0  0  0  0  0  0  0  0
    0.0113    0.7634   -1.0512 C   0  0  0  0  0  0  0  0  0  0  0  0
   -3.4066   -0.8847    1.0415 H   0  0  0  0  0  0  0  0  0  0  0  0
   -3.3414    1.9462   -0.1315 H   0  0  0  0  0  0  0  0  0  0  0  0
   -4.7667    0.9999    0.3023 H   0  0  0  0  0  0  0  0  0  0  0  0
   -3.6731    1.5549    1.5663 H   0  0  0  0  0  0  0  0  0  0  0  0
   -4.0147   -0.7167   -1.2232 H   0  0  0  0  0  0  0  0  0  0  0  0
   -2.6129   -1.5399   -1.0532 H   0  0  0  0  0  0  0  0  0  0  0  0
   -0.9433   -0.9852    0.6234 H   0  0  0  0  0  0  0  0  0  0  0  0
   -0.2889    0.0853    2.7325 H   0  0  0  0  0  0  0  0  0  0  0  0
   -1.7985   -0.8242    2.8645 H   0  0  0  0  0  0  0  0  0  0  0  0
   -1.8369    0.9388    2.8119 H   0  0  0  0  0  0  0  0  0  0  0  0
   -0.9676    2.6441    1.6134 H   0  0  0  0  0  0  0  0  0  0  0  0
    0.3605    4.3238    0.4206 H   0  0  0  0  0  0  0  0  0  0  0  0
    1.4728    3.7595   -1.7227 H   0  0  0  0  0  0  0  0  0  0  0  0
    1.2380    1.4787   -2.6714 H   0  0  0  0  0  0  0  0  0  0  0  0
   -0.0891   -0.2266   -1.4908 H   0  0  0  0  0  0  0  0  0  0  0  0
  1  2  1  0
  1  3  1  0
  1  4  1  0
  4  5  1  0
  4  6  1  0
  6  7  2  0
  7  8  1  0
  8  9  2  0
  9 10  1  0
 10 11  2  0
 11  6  1  0
  1 12  1  1
  2 13  1  0
  2 14  1  0
  2 15  1  0
  3 16  1  0
  3 17  1  0
  4 18  1  6
  5 19  1  0
  5 20  1  0
  5 21  1  0
  7 22  1  0
  8 23  1  0
  9 24  1  0
 10 25  1  0
 11 26  1  0
M  END
