
     RDKit          3D

 28 29  0  0  0  0  0  0  0  0999 V2000
   -0.6578   -3.1619   -2.1214 C   0  0  0  0  0  0  0  0  0  0  0  0
    0.4944   -3.0855   -1.1256 C   0  0  2  0  0  0  0  0  0  0  0  0
    0.2519   -3.9935   -0.0429 N   0  0  0  0  0  4  0  0  0  0  0  0
    0.0630   -4.7535    0.8293 C   0  0  0  0  0  3  0  0  0  0  0  0
    0.6745   -1.6764   -0.5928 C   0  0  0  0  0  0  0  0  0  0  0  0
   -0.1134   -0.7599   -0.7991 O   0  0  0  0  0  0  0  0  0  0  0  0
    2.1895   -1.4248    0.2917 S   0  0  0  0  0  0  0  0  0  0  0  0
    1.7232   -0.0594    1.3633 C   0  0  0  0  0  0  0  0  0  0  0  0
    1.9555    1.2345    0.8720 C   0  0  0  0  0  0  0  0  0  0  0  0
    1.6255    2.3493    1.6344 C   0  0  0  0  0  0  0  0  0  0  0  0
    1.0651    2.1819    2.8974 C   0  0  0  0  0  0  0  0  0  0  0  0
    0.8307    0.9012    3.4204 C   0  0  0  0  0  0  0  0  0  0  0  0
    0.2676    0.7611    4.7000 C   0  0  0  0  0  0  0  0  0  0  0  0
    0.0286   -0.4979    5.2471 C   0  0  0  0  0  0  0  0  0  0  0  0
    0.3533   -1.6354    4.5220 C   0  0  0  0  0  0  0  0  0  0  0  0
    0.9140   -1.5132    3.2483 C   0  0  0  0  0  0  0  0  0  0  0  0
    1.1634   -0.2488    2.6588 C   0  0  0  0  0  0  0  0  0  0  0  0
   -0.7587   -4.1775   -2.5186 H   0  0  0  0  0  0  0  0  0  0  0  0
   -1.6103   -2.8959   -1.6491 H   0  0  0  0  0  0  0  0  0  0  0  0
   -0.4968   -2.4790   -2.9623 H   0  0  0  0  0  0  0  0  0  0  0  0
    1.4137   -3.3868   -1.6427 H   0  0  0  0  0  0  0  0  0  0  0  0
    2.3850    1.3835   -0.1160 H   0  0  0  0  0  0  0  0  0  0  0  0
    1.7998    3.3483    1.2435 H   0  0  0  0  0  0  0  0  0  0  0  0
    0.8106    3.0675    3.4766 H   0  0  0  0  0  0  0  0  0  0  0  0
    0.0082    1.6406    5.2859 H   0  0  0  0  0  0  0  0  0  0  0  0
   -0.4085   -0.5880    6.2378 H   0  0  0  0  0  0  0  0  0  0  0  0
    0.1727   -2.6219    4.9418 H   0  0  0  0  0  0  0  0  0  0  0  0
    1.1588   -2.4325    2.7225 H   0  0  0  0  0  0  0  0  0  0  0  0
  1  2  1  0
  2  3  1  0
  3  4  3  0
  2  5  1  0
  5  6  2  0
  5  7  1  0
  7  8  1  0
  8  9  2  0
  9 10  1  0
 10 11  2  0
 11 12  1  0
 12 13  2  0
 13 14  1  0
 14 15  2  0
 15 16  1  0
 16 17  2  0
 17  8  1  0
 17 12  1  0
  1 18  1  0
  1 19  1  0
  1 20  1  0
  2 21  1  6
  9 22  1  0
 10 23  1  0
 11 24  1  0
 13 25  1  0
 14 26  1  0
 15 27  1  0
 16 28  1  0
M  CHG  2   3   1   4  -1
M  END
