
     RDKit          3D

 28 28  0  0  0  0  0  0  0  0999 V2000
   -1.9858   -0.6587   -3.7570 C   0  0  0  0  0  0  0  0  0  0  0  0
   -1.3823   -1.1980   -2.4643 C   0  0  2  0  0  0  0  0  0  0  0  0
   -1.4340   -2.6306   -2.4731 N   0  0  0  0  0  4  0  0  0  0  0  0
   -1.4575   -3.8024   -2.4911 C   0  0  0  0  0  3  0  0  0  0  0  0
   -2.1181   -0.6636   -1.2491 C   0  0  0  0  0  0  0  0  0  0  0  0
   -3.1827   -0.0567   -1.3038 O   0  0  0  0  0  0  0  0  0  0  0  0
   -1.3547   -0.9632    0.3185 S   0  0  0  0  0  0  0  0  0  0  0  0
    0.1148    0.0657    0.1736 C   0  0  0  0  0  0  0  0  0  0  0  0
    0.0179    1.4778    0.1720 C   0  0  0  0  0  0  0  0  0  0  0  0
   -1.2875    2.2171    0.3242 C   0  0  0  0  0  0  0  0  0  0  0  0
    1.1817    2.2454   -0.0031 C   0  0  0  0  0  0  0  0  0  0  0  0
    2.4256    1.6380   -0.1377 C   0  0  0  0  0  0  0  0  0  0  0  0
    2.5283    0.2520   -0.0947 C   0  0  0  0  0  0  0  0  0  0  0  0
    1.3867   -0.5494    0.0682 C   0  0  0  0  0  0  0  0  0  0  0  0
    1.5749   -2.0449    0.1183 C   0  0  0  0  0  0  0  0  0  0  0  0
   -1.4324   -1.0302   -4.6260 H   0  0  0  0  0  0  0  0  0  0  0  0
   -1.9596    0.4360   -3.7756 H   0  0  0  0  0  0  0  0  0  0  0  0
   -3.0293   -0.9732   -3.8714 H   0  0  0  0  0  0  0  0  0  0  0  0
   -0.3347   -0.8817   -2.4277 H   0  0  0  0  0  0  0  0  0  0  0  0
   -1.9063    1.7776    1.1123 H   0  0  0  0  0  0  0  0  0  0  0  0
   -1.1180    3.2604    0.6137 H   0  0  0  0  0  0  0  0  0  0  0  0
   -1.8344    2.2186   -0.6228 H   0  0  0  0  0  0  0  0  0  0  0  0
    1.1251    3.3325   -0.0248 H   0  0  0  0  0  0  0  0  0  0  0  0
    3.3179    2.2466   -0.2630 H   0  0  0  0  0  0  0  0  0  0  0  0
    3.5132   -0.2028   -0.1847 H   0  0  0  0  0  0  0  0  0  0  0  0
    1.1043   -2.5189   -0.7479 H   0  0  0  0  0  0  0  0  0  0  0  0
    1.1560   -2.4561    1.0422 H   0  0  0  0  0  0  0  0  0  0  0  0
    2.6362   -2.3165    0.1015 H   0  0  0  0  0  0  0  0  0  0  0  0
  1  2  1  0
  2  3  1  0
  3  4  3  0
  2  5  1  0
  5  6  2  0
  5  7  1  0
  7  8  1  0
  8  9  2  0
  9 10  1  0
  9 11  1  0
 11 12  2  0
 12 13  1  0
 13 14  2  0
 14 15  1  0
 14  8  1  0
  1 16  1  0
  1 17  1  0
  1 18  1  0
  2 19  1  1
 10 20  1  0
 10 21  1  0
 10 22  1  0
 11 23  1  0
 12 24  1  0
 13 25  1  0
 15 26  1  0
 15 27  1  0
 15 28  1  0
M  CHG  2   3   1   4  -1
M  END
