
     RDKit          3D

 38 39  0  0  0  0  0  0  0  0999 V2000
   -3.5564    0.1190    0.9194 C   0  0  0  0  0  0  0  0  0  0  0  0
   -2.3103   -0.7075    0.7271 C   0  0  0  0  0  0  0  0  0  0  0  0
   -2.4442   -1.8937   -0.0161 C   0  0  0  0  0  0  0  0  0  0  0  0
   -1.3569   -2.7327   -0.2298 C   0  0  0  0  0  0  0  0  0  0  0  0
   -0.1174   -2.4055    0.3060 C   0  0  0  0  0  0  0  0  0  0  0  0
    0.0582   -1.2244    1.0464 C   0  0  0  0  0  0  0  0  0  0  0  0
    1.4315   -0.9508    1.6074 C   0  0  0  0  0  0  0  0  0  0  0  0
   -1.0365   -0.3405    1.2230 C   0  0  0  0  0  0  0  0  0  0  0  0
   -0.7800    1.2077    2.1035 S   0  0  0  0  0  0  0  0  0  0  0  0
   -1.0235    2.3862    0.8119 C   0  0  0  0  0  0  0  0  0  0  0  0
   -2.1361    2.8754    0.6285 O   0  0  0  0  0  0  0  0  0  0  0  0
    0.1510    2.7461   -0.0691 C   0  0  2  0  0  0  0  0  0  0  0  0
    0.2433    1.7747   -1.2489 C   0  0  0  0  0  0  0  0  0  0  0  0
    0.9502    2.3825   -2.4378 C   0  0  0  0  0  0  0  0  0  0  0  0
    2.3349    2.2388   -2.5950 C   0  0  0  0  0  0  0  0  0  0  0  0
    2.9863    2.8247   -3.6812 C   0  0  0  0  0  0  0  0  0  0  0  0
    2.2615    3.5583   -4.6183 C   0  0  0  0  0  0  0  0  0  0  0  0
    0.8841    3.7074   -4.4707 C   0  0  0  0  0  0  0  0  0  0  0  0
    0.2300    3.1242   -3.3847 C   0  0  0  0  0  0  0  0  0  0  0  0
    1.3922    2.8267    0.6454 N   0  0  0  0  0  4  0  0  0  0  0  0
    2.4108    2.9239    1.2184 C   0  0  0  0  0  3  0  0  0  0  0  0
   -3.6583    0.8408    0.1043 H   0  0  0  0  0  0  0  0  0  0  0  0
   -3.5608    0.6400    1.8806 H   0  0  0  0  0  0  0  0  0  0  0  0
   -4.4475   -0.5195    0.9192 H   0  0  0  0  0  0  0  0  0  0  0  0
   -3.4122   -2.1763   -0.4270 H   0  0  0  0  0  0  0  0  0  0  0  0
   -1.4799   -3.6499   -0.8004 H   0  0  0  0  0  0  0  0  0  0  0  0
    0.7175   -3.0854    0.1462 H   0  0  0  0  0  0  0  0  0  0  0  0
    1.3789   -0.7192    2.6758 H   0  0  0  0  0  0  0  0  0  0  0  0
    2.0845   -1.8252    1.5095 H   0  0  0  0  0  0  0  0  0  0  0  0
    1.9053   -0.1266    1.0684 H   0  0  0  0  0  0  0  0  0  0  0  0
   -0.0567    3.7613   -0.4366 H   0  0  0  0  0  0  0  0  0  0  0  0
   -0.7575    1.4559   -1.5696 H   0  0  0  0  0  0  0  0  0  0  0  0
    0.7671    0.8560   -0.9600 H   0  0  0  0  0  0  0  0  0  0  0  0
    2.9202    1.6733   -1.8725 H   0  0  0  0  0  0  0  0  0  0  0  0
    4.0613    2.7100   -3.7952 H   0  0  0  0  0  0  0  0  0  0  0  0
    2.7707    4.0143   -5.4634 H   0  0  0  0  0  0  0  0  0  0  0  0
    0.3193    4.2802   -5.2019 H   0  0  0  0  0  0  0  0  0  0  0  0
   -0.8460    3.2534   -3.2860 H   0  0  0  0  0  0  0  0  0  0  0  0
  1  2  1  0
  2  3  2  0
  3  4  1  0
  4  5  2  0
  5  6  1  0
  6  7  1  0
  6  8  2  0
  8  9  1  0
  9 10  1  0
 10 11  2  0
 10 12  1  0
 12 13  1  0
 13 14  1  0
 14 15  2  0
 15 16  1  0
 16 17  2  0
 17 18  1  0
 18 19  2  0
 12 20  1  0
 20 21  3  0
  8  2  1  0
 19 14  1  0
  1 22  1  0
  1 23  1  0
  1 24  1  0
  3 25  1  0
  4 26  1  0
  5 27  1  0
  7 28  1  0
  7 29  1  0
  7 30  1  0
 12 31  1  6
 13 32  1  0
 13 33  1  0
 15 34  1  0
 16 35  1  0
 17 36  1  0
 18 37  1  0
 19 38  1  0
M  CHG  2  20   1  21  -1
M  END
