
     RDKit          3D

 37 37  0  0  0  0  0  0  0  0999 V2000
    1.0069   -3.4746   -3.2443 C   0  0  0  0  0  0  0  0  0  0  0  0
    1.4397   -2.7696   -1.9554 C   0  0  0  0  0  0  0  0  0  0  0  0
    2.9463   -2.5099   -1.9928 C   0  0  0  0  0  0  0  0  0  0  0  0
    0.6198   -1.4759   -1.7722 C   0  0  0  0  0  0  0  0  0  0  0  0
    0.8939   -0.7133   -0.4655 C   0  0  2  0  0  0  0  0  0  0  0  0
    0.5268   -1.5106    0.6697 N   0  0  0  0  0  4  0  0  0  0  0  0
    0.2445   -2.1613    1.6032 C   0  0  0  0  0  3  0  0  0  0  0  0
    0.1074    0.5882   -0.4225 C   0  0  0  0  0  0  0  0  0  0  0  0
   -0.8304    0.8462   -1.1689 O   0  0  0  0  0  0  0  0  0  0  0  0
    0.7005    1.7441    0.7825 S   0  0  0  0  0  0  0  0  0  0  0  0
   -0.7116    2.8501    0.9287 C   0  0  0  0  0  0  0  0  0  0  0  0
   -1.7541    2.5564    1.8402 C   0  0  0  0  0  0  0  0  0  0  0  0
   -1.7588    1.3165    2.6961 C   0  0  0  0  0  0  0  0  0  0  0  0
   -2.8390    3.4412    1.9520 C   0  0  0  0  0  0  0  0  0  0  0  0
   -2.8943    4.6024    1.1878 C   0  0  0  0  0  0  0  0  0  0  0  0
   -1.8656    4.8983    0.2990 C   0  0  0  0  0  0  0  0  0  0  0  0
   -0.7658    4.0362    0.1582 C   0  0  0  0  0  0  0  0  0  0  0  0
    0.3129    4.4136   -0.8232 C   0  0  0  0  0  0  0  0  0  0  0  0
    1.5495   -4.4173   -3.3740 H   0  0  0  0  0  0  0  0  0  0  0  0
   -0.0629   -3.7076   -3.2205 H   0  0  0  0  0  0  0  0  0  0  0  0
    1.1994   -2.8495   -4.1230 H   0  0  0  0  0  0  0  0  0  0  0  0
    1.2296   -3.4507   -1.1219 H   0  0  0  0  0  0  0  0  0  0  0  0
    3.4942   -3.4332   -2.2101 H   0  0  0  0  0  0  0  0  0  0  0  0
    3.2036   -1.7756   -2.7638 H   0  0  0  0  0  0  0  0  0  0  0  0
    3.3114   -2.1392   -1.0305 H   0  0  0  0  0  0  0  0  0  0  0  0
   -0.4479   -1.7320   -1.8166 H   0  0  0  0  0  0  0  0  0  0  0  0
    0.8091   -0.8074   -2.6231 H   0  0  0  0  0  0  0  0  0  0  0  0
    1.9599   -0.4681   -0.4035 H   0  0  0  0  0  0  0  0  0  0  0  0
   -2.6227    1.2962    3.3692 H   0  0  0  0  0  0  0  0  0  0  0  0
   -0.8631    1.2757    3.3237 H   0  0  0  0  0  0  0  0  0  0  0  0
   -1.8166    0.4213    2.0694 H   0  0  0  0  0  0  0  0  0  0  0  0
   -3.6547    3.2277    2.6400 H   0  0  0  0  0  0  0  0  0  0  0  0
   -3.7412    5.2769    1.2841 H   0  0  0  0  0  0  0  0  0  0  0  0
   -1.9280    5.8115   -0.2890 H   0  0  0  0  0  0  0  0  0  0  0  0
    0.4027    3.6542   -1.6065 H   0  0  0  0  0  0  0  0  0  0  0  0
    1.2727    4.5345   -0.3107 H   0  0  0  0  0  0  0  0  0  0  0  0
    0.0899    5.3645   -1.3196 H   0  0  0  0  0  0  0  0  0  0  0  0
  1  2  1  0
  2  3  1  0
  2  4  1  0
  4  5  1  0
  5  6  1  0
  6  7  3  0
  5  8  1  0
  8  9  2  0
  8 10  1  0
 10 11  1  0
 11 12  2  0
 12 13  1  0
 12 14  1  0
 14 15  2  0
 15 16  1  0
 16 17  2  0
 17 18  1  0
 17 11  1  0
  1 19  1  0
  1 20  1  0
  1 21  1  0
  2 22  1  0
  3 23  1  0
  3 24  1  0
  3 25  1  0
  4 26  1  0
  4 27  1  0
  5 28  1  1
 13 29  1  0
 13 30  1  0
 13 31  1  0
 14 32  1  0
 15 33  1  0
 16 34  1  0
 18 35  1  0
 18 36  1  0
 18 37  1  0
M  CHG  2   6   1   7  -1
M  END
