
     RDKit          3D

 39 39  0  0  0  0  0  0  0  0999 V2000
   -2.6811   -3.1400    3.0888 C   0  0  0  0  0  0  0  0  0  0  0  0
   -2.9229   -1.8028    2.4406 C   0  0  0  0  0  0  0  0  0  0  0  0
   -4.0631   -1.4096    2.1976 O   0  0  0  0  0  0  0  0  0  0  0  0
   -1.6977   -0.9483    2.1653 C   0  0  0  0  0  0  0  0  0  0  0  0
   -1.9725    0.0875    1.0690 C   0  0  0  0  0  0  0  0  0  0  0  0
   -0.7471    0.9171    0.6020 C   0  0  2  0  0  0  0  0  0  0  0  0
   -0.0017    1.5231    1.7989 C   0  0  0  0  0  0  0  0  0  0  0  0
   -1.2553    1.9923   -0.2210 N   0  0  0  0  0  4  0  0  0  0  0  0
   -1.6856    2.8670   -0.8736 C   0  0  0  0  0  3  0  0  0  0  0  0
    0.2000    0.0515   -0.2454 C   0  0  0  0  0  0  0  0  0  0  0  0
    0.0992   -1.1697   -0.3237 O   0  0  0  0  0  0  0  0  0  0  0  0
    1.5346    0.9065   -1.0447 S   0  0  0  0  0  0  0  0  0  0  0  0
    1.8928   -0.2139   -2.4064 C   0  0  0  0  0  0  0  0  0  0  0  0
    1.1859   -0.0981   -3.6273 C   0  0  0  0  0  0  0  0  0  0  0  0
    0.1029    0.9262   -3.8475 C   0  0  0  0  0  0  0  0  0  0  0  0
    1.4800   -0.9823   -4.6782 C   0  0  0  0  0  0  0  0  0  0  0  0
    2.4658   -1.9539   -4.5390 C   0  0  0  0  0  0  0  0  0  0  0  0
    3.1735   -2.0580   -3.3461 C   0  0  0  0  0  0  0  0  0  0  0  0
    2.9043   -1.1950   -2.2711 C   0  0  0  0  0  0  0  0  0  0  0  0
    3.7040   -1.3639   -1.0059 C   0  0  0  0  0  0  0  0  0  0  0  0
   -2.0280   -3.7430    2.4530 H   0  0  0  0  0  0  0  0  0  0  0  0
   -2.2235   -2.9942    4.0696 H   0  0  0  0  0  0  0  0  0  0  0  0
   -3.6316   -3.6655    3.2121 H   0  0  0  0  0  0  0  0  0  0  0  0
   -0.8817   -1.6153    1.8749 H   0  0  0  0  0  0  0  0  0  0  0  0
   -1.4233   -0.4619    3.1072 H   0  0  0  0  0  0  0  0  0  0  0  0
   -2.7470    0.7761    1.4351 H   0  0  0  0  0  0  0  0  0  0  0  0
   -2.4205   -0.4150    0.1998 H   0  0  0  0  0  0  0  0  0  0  0  0
    0.7181    2.2865    1.4820 H   0  0  0  0  0  0  0  0  0  0  0  0
    0.5553    0.7625    2.3564 H   0  0  0  0  0  0  0  0  0  0  0  0
   -0.6987    2.0161    2.4859 H   0  0  0  0  0  0  0  0  0  0  0  0
   -0.7715    0.6905   -3.2331 H   0  0  0  0  0  0  0  0  0  0  0  0
   -0.2230    0.9454   -4.8938 H   0  0  0  0  0  0  0  0  0  0  0  0
    0.4645    1.9325   -3.6133 H   0  0  0  0  0  0  0  0  0  0  0  0
    0.9367   -0.9191   -5.6188 H   0  0  0  0  0  0  0  0  0  0  0  0
    2.6825   -2.6310   -5.3609 H   0  0  0  0  0  0  0  0  0  0  0  0
    3.9408   -2.8240   -3.2581 H   0  0  0  0  0  0  0  0  0  0  0  0
    4.4564   -2.1540   -1.1092 H   0  0  0  0  0  0  0  0  0  0  0  0
    3.0519   -1.6455   -0.1732 H   0  0  0  0  0  0  0  0  0  0  0  0
    4.2405   -0.4409   -0.7618 H   0  0  0  0  0  0  0  0  0  0  0  0
  1  2  1  0
  2  3  2  0
  2  4  1  0
  4  5  1  0
  5  6  1  0
  6  7  1  0
  6  8  1  6
  8  9  3  0
  6 10  1  0
 10 11  2  0
 10 12  1  0
 12 13  1  0
 13 14  2  0
 14 15  1  0
 14 16  1  0
 16 17  2  0
 17 18  1  0
 18 19  2  0
 19 20  1  0
 19 13  1  0
  1 21  1  0
  1 22  1  0
  1 23  1  0
  4 24  1  0
  4 25  1  0
  5 26  1  0
  5 27  1  0
  7 28  1  0
  7 29  1  0
  7 30  1  0
 15 31  1  0
 15 32  1  0
 15 33  1  0
 16 34  1  0
 17 35  1  0
 18 36  1  0
 20 37  1  0
 20 38  1  0
 20 39  1  0
M  CHG  2   8   1   9  -1
M  END
