
     RDKit          3D

 42 42  0  0  0  0  0  0  0  0999 V2000
   -2.0166   -2.9435    2.9611 C   0  0  0  0  0  0  0  0  0  0  0  0
   -2.5640   -1.5552    2.6801 C   0  0  0  0  0  0  0  0  0  0  0  0
   -1.6690   -0.4558    3.2273 C   0  0  0  0  0  0  0  0  0  0  0  0
   -0.6132   -0.6903    3.8127 O   0  0  0  0  0  0  0  0  0  0  0  0
   -2.1259    0.9747    3.0183 C   0  0  0  0  0  0  0  0  0  0  0  0
   -1.9033    1.4965    1.5991 C   0  0  0  0  0  0  0  0  0  0  0  0
   -0.4717    1.9738    1.1945 C   0  0  2  0  0  0  0  0  0  0  0  0
    0.5706    2.0435    2.3188 C   0  0  0  0  0  0  0  0  0  0  0  0
   -0.6042    3.3394    0.7077 N   0  0  0  0  0  4  0  0  0  0  0  0
   -0.7155    4.4570    0.3680 C   0  0  0  0  0  3  0  0  0  0  0  0
    0.0342    1.1325    0.0034 C   0  0  0  0  0  0  0  0  0  0  0  0
    0.0252    1.5312   -1.1562 O   0  0  0  0  0  0  0  0  0  0  0  0
    0.5456   -0.5236    0.3942 S   0  0  0  0  0  0  0  0  0  0  0  0
    0.9693   -1.1637   -1.2325 C   0  0  0  0  0  0  0  0  0  0  0  0
   -0.0132   -1.8126   -2.0186 C   0  0  0  0  0  0  0  0  0  0  0  0
   -1.4366   -1.9840   -1.5567 C   0  0  0  0  0  0  0  0  0  0  0  0
    0.3408   -2.3185   -3.2799 C   0  0  0  0  0  0  0  0  0  0  0  0
    1.6410   -2.1928   -3.7593 C   0  0  0  0  0  0  0  0  0  0  0  0
    2.6098   -1.5648   -2.9834 C   0  0  0  0  0  0  0  0  0  0  0  0
    2.2943   -1.0499   -1.7158 C   0  0  0  0  0  0  0  0  0  0  0  0
    3.3907   -0.3855   -0.9245 C   0  0  0  0  0  0  0  0  0  0  0  0
   -2.6870   -3.7076    2.5560 H   0  0  0  0  0  0  0  0  0  0  0  0
   -1.9127   -3.1148    4.0381 H   0  0  0  0  0  0  0  0  0  0  0  0
   -1.0305   -3.0763    2.5037 H   0  0  0  0  0  0  0  0  0  0  0  0
   -3.5525   -1.4521    3.1402 H   0  0  0  0  0  0  0  0  0  0  0  0
   -2.6656   -1.4203    1.5989 H   0  0  0  0  0  0  0  0  0  0  0  0
   -1.6560    1.6184    3.7685 H   0  0  0  0  0  0  0  0  0  0  0  0
   -3.1992    0.9970    3.2463 H   0  0  0  0  0  0  0  0  0  0  0  0
   -2.2652    0.7522    0.8789 H   0  0  0  0  0  0  0  0  0  0  0  0
   -2.5940    2.3434    1.4818 H   0  0  0  0  0  0  0  0  0  0  0  0
    1.5260    2.4197    1.9294 H   0  0  0  0  0  0  0  0  0  0  0  0
    0.7809    1.0776    2.7814 H   0  0  0  0  0  0  0  0  0  0  0  0
    0.2560    2.7379    3.1064 H   0  0  0  0  0  0  0  0  0  0  0  0
   -2.0447   -2.4991   -2.3087 H   0  0  0  0  0  0  0  0  0  0  0  0
   -1.4724   -2.5869   -0.6440 H   0  0  0  0  0  0  0  0  0  0  0  0
   -1.9032   -1.0099   -1.3780 H   0  0  0  0  0  0  0  0  0  0  0  0
   -0.4012   -2.8126   -3.9037 H   0  0  0  0  0  0  0  0  0  0  0  0
    1.8997   -2.5839   -4.7399 H   0  0  0  0  0  0  0  0  0  0  0  0
    3.6200   -1.4765   -3.3773 H   0  0  0  0  0  0  0  0  0  0  0  0
    3.1555    0.6707   -0.7546 H   0  0  0  0  0  0  0  0  0  0  0  0
    4.3477   -0.4209   -1.4565 H   0  0  0  0  0  0  0  0  0  0  0  0
    3.5377   -0.8941    0.0355 H   0  0  0  0  0  0  0  0  0  0  0  0
  1  2  1  0
  2  3  1  0
  3  4  2  0
  3  5  1  0
  5  6  1  0
  6  7  1  0
  7  8  1  0
  7  9  1  6
  9 10  3  0
  7 11  1  0
 11 12  2  0
 11 13  1  0
 13 14  1  0
 14 15  2  0
 15 16  1  0
 15 17  1  0
 17 18  2  0
 18 19  1  0
 19 20  2  0
 20 21  1  0
 20 14  1  0
  1 22  1  0
  1 23  1  0
  1 24  1  0
  2 25  1  0
  2 26  1  0
  5 27  1  0
  5 28  1  0
  6 29  1  0
  6 30  1  0
  8 31  1  0
  8 32  1  0
  8 33  1  0
 16 34  1  0
 16 35  1  0
 16 36  1  0
 17 37  1  0
 18 38  1  0
 19 39  1  0
 21 40  1  0
 21 41  1  0
 21 42  1  0
M  CHG  2   9   1  10  -1
M  END
