
     RDKit          3D

 36 36  0  0  0  0  0  0  0  0999 V2000
   -2.9177   -4.2646   -2.4077 C   0  0  0  0  0  0  0  0  0  0  0  0
   -2.6110   -2.8353   -2.7759 C   0  0  0  0  0  0  0  0  0  0  0  0
   -3.1673   -2.2869   -3.7263 O   0  0  0  0  0  0  0  0  0  0  0  0
   -1.5745   -2.1261   -1.9206 C   0  0  0  0  0  0  0  0  0  0  0  0
   -1.3780   -0.6654   -2.3495 C   0  0  0  0  0  0  0  0  0  0  0  0
   -0.2454    0.0770   -1.6063 C   0  0  2  0  0  0  0  0  0  0  0  0
   -0.1582    1.5196   -2.1445 C   0  0  0  0  0  0  0  0  0  0  0  0
    1.0180   -0.5559   -1.8928 N   0  0  0  0  0  4  0  0  0  0  0  0
    2.0470   -1.0586   -2.1480 C   0  0  0  0  0  3  0  0  0  0  0  0
   -0.5716    0.1682   -0.1137 C   0  0  0  0  0  0  0  0  0  0  0  0
   -1.4578    0.8976    0.3234 O   0  0  0  0  0  0  0  0  0  0  0  0
    0.3072   -0.8838    0.9978 S   0  0  0  0  0  0  0  0  0  0  0  0
    1.5304    0.3214    1.5840 C   0  0  0  0  0  0  0  0  0  0  0  0
    1.0790    1.0596    2.8178 C   0  0  0  0  0  0  0  0  0  0  0  0
    0.4218    2.2958    2.7153 C   0  0  0  0  0  0  0  0  0  0  0  0
    0.0029    2.9745    3.8619 C   0  0  0  0  0  0  0  0  0  0  0  0
    0.2306    2.4237    5.1227 C   0  0  0  0  0  0  0  0  0  0  0  0
    0.8756    1.1931    5.2378 C   0  0  0  0  0  0  0  0  0  0  0  0
    1.2950    0.5121    4.0927 C   0  0  0  0  0  0  0  0  0  0  0  0
   -3.6847   -4.6619   -3.0780 H   0  0  0  0  0  0  0  0  0  0  0  0
   -3.2907   -4.3067   -1.3818 H   0  0  0  0  0  0  0  0  0  0  0  0
   -2.0133   -4.8701   -2.5071 H   0  0  0  0  0  0  0  0  0  0  0  0
   -1.9190   -2.1731   -0.8818 H   0  0  0  0  0  0  0  0  0  0  0  0
   -0.6378   -2.6860   -2.0114 H   0  0  0  0  0  0  0  0  0  0  0  0
   -2.3284   -0.1310   -2.2059 H   0  0  0  0  0  0  0  0  0  0  0  0
   -1.1705   -0.6381   -3.4294 H   0  0  0  0  0  0  0  0  0  0  0  0
   -1.0996    2.0638   -2.0044 H   0  0  0  0  0  0  0  0  0  0  0  0
    0.0806    1.5283   -3.2148 H   0  0  0  0  0  0  0  0  0  0  0  0
    0.6285    2.0812   -1.6272 H   0  0  0  0  0  0  0  0  0  0  0  0
    2.4549   -0.2231    1.8099 H   0  0  0  0  0  0  0  0  0  0  0  0
    1.7889    1.0282    0.7865 H   0  0  0  0  0  0  0  0  0  0  0  0
    0.2183    2.7376    1.7416 H   0  0  0  0  0  0  0  0  0  0  0  0
   -0.5114    3.9290    3.7701 H   0  0  0  0  0  0  0  0  0  0  0  0
   -0.1018    2.9500    6.0143 H   0  0  0  0  0  0  0  0  0  0  0  0
    1.0438    0.7592    6.2201 H   0  0  0  0  0  0  0  0  0  0  0  0
    1.7869   -0.4533    4.2022 H   0  0  0  0  0  0  0  0  0  0  0  0
  1  2  1  0
  2  3  2  0
  2  4  1  0
  4  5  1  0
  5  6  1  0
  6  7  1  0
  6  8  1  1
  8  9  3  0
  6 10  1  0
 10 11  2  0
 10 12  1  0
 12 13  1  0
 13 14  1  0
 14 15  2  0
 15 16  1  0
 16 17  2  0
 17 18  1  0
 18 19  2  0
 19 14  1  0
  1 20  1  0
  1 21  1  0
  1 22  1  0
  4 23  1  0
  4 24  1  0
  5 25  1  0
  5 26  1  0
  7 27  1  0
  7 28  1  0
  7 29  1  0
 13 30  1  0
 13 31  1  0
 15 32  1  0
 16 33  1  0
 17 34  1  0
 18 35  1  0
 19 36  1  0
M  CHG  2   8   1   9  -1
M  END
