
     RDKit          3D

 33 33  0  0  0  0  0  0  0  0999 V2000
   -2.0092   -3.1833    1.5258 C   0  0  0  0  0  0  0  0  0  0  0  0
   -1.1540   -2.0704    0.8874 C   0  0  0  0  0  0  0  0  0  0  0  0
   -1.3786   -2.1295   -0.6378 C   0  0  0  0  0  0  0  0  0  0  0  0
    0.3218   -2.3443    1.2170 C   0  0  0  0  0  0  0  0  0  0  0  0
    1.1929   -1.2342    0.6839 C   0  0  0  0  0  0  0  0  0  0  0  0
    2.1957   -1.4721    0.0103 O   0  0  0  0  0  0  0  0  0  0  0  0
    0.8244    0.1686    1.0584 C   0  0  0  0  0  0  0  0  0  0  0  0
    0.8788    1.0817   -0.1377 C   0  0  0  0  0  0  0  0  0  0  0  0
   -0.0834    1.1836   -0.9062 O   0  0  0  0  0  0  0  0  0  0  0  0
    2.1851    1.8459   -0.3869 C   0  0  1  0  0  0  0  0  0  0  0  0
    2.5096    1.7378   -1.8280 N   0  0  0  0  0  0  0  0  0  0  0  0
    2.0223    3.3210    0.0076 C   0  0  0  0  0  0  0  0  0  0  0  0
    1.9327    3.5709    1.8131 S   0  0  0  0  0  0  0  0  0  0  0  0
   -0.5008    0.2846    1.7545 C   0  0  0  0  0  0  0  0  0  0  0  0
   -0.7105    1.2329    2.5172 O   0  0  0  0  0  0  0  0  0  0  0  0
   -1.6108   -0.7006    1.4392 C   0  0  0  0  0  0  0  0  0  0  0  0
   -1.7343   -4.1693    1.1340 H   0  0  0  0  0  0  0  0  0  0  0  0
   -1.8767   -3.2110    2.6134 H   0  0  0  0  0  0  0  0  0  0  0  0
   -3.0750   -3.0284    1.3229 H   0  0  0  0  0  0  0  0  0  0  0  0
   -2.4389   -2.0024   -0.8849 H   0  0  0  0  0  0  0  0  0  0  0  0
   -0.8240   -1.3489   -1.1661 H   0  0  0  0  0  0  0  0  0  0  0  0
   -1.0589   -3.0951   -1.0462 H   0  0  0  0  0  0  0  0  0  0  0  0
    0.4868   -2.4119    2.2990 H   0  0  0  0  0  0  0  0  0  0  0  0
    0.6510   -3.2919    0.7743 H   0  0  0  0  0  0  0  0  0  0  0  0
    1.5730    0.4830    1.7960 H   0  0  0  0  0  0  0  0  0  0  0  0
    3.0058    1.3789    0.1678 H   0  0  0  0  0  0  0  0  0  0  0  0
    2.6760    0.7543   -2.0556 H   0  0  0  0  0  0  0  0  0  0  0  0
    1.6737    1.9913   -2.3646 H   0  0  0  0  0  0  0  0  0  0  0  0
    1.1233    3.7583   -0.4408 H   0  0  0  0  0  0  0  0  0  0  0  0
    2.8847    3.8970   -0.3460 H   0  0  0  0  0  0  0  0  0  0  0  0
    0.6595    3.1703    1.9845 H   0  0  0  0  0  0  0  0  0  0  0  0
   -2.1530   -0.8441    2.3831 H   0  0  0  0  0  0  0  0  0  0  0  0
   -2.3024   -0.2088    0.7452 H   0  0  0  0  0  0  0  0  0  0  0  0
  1  2  1  0
  2  3  1  0
  2  4  1  0
  4  5  1  0
  5  6  2  0
  5  7  1  0
  7  8  1  0
  8  9  2  0
  8 10  1  0
 10 11  1  0
 10 12  1  0
 12 13  1  0
  7 14  1  0
 14 15  2  0
 14 16  1  0
 16  2  1  0
  1 17  1  0
  1 18  1  0
  1 19  1  0
  3 20  1  0
  3 21  1  0
  3 22  1  0
  4 23  1  0
  4 24  1  0
  7 25  1  0
 10 26  1  1
 11 27  1  0
 11 28  1  0
 12 29  1  0
 12 30  1  0
 13 31  1  0
 16 32  1  0
 16 33  1  0
M  END
