
     RDKit          3D

 22 21  0  0  0  0  0  0  0  0999 V2000
   -0.2403   -0.6115    2.3137 C   0  0  0  0  0  0  0  0  0  0  0  0
    1.1071    0.0197    1.9726 C   0  0  0  0  0  0  0  0  0  0  0  0
    2.1691   -0.4137    2.9813 C   0  0  0  0  0  0  0  0  0  0  0  0
    1.6487   -0.4975    0.3059 S   0  0  0  0  0  0  0  0  0  0  0  0
    0.5976    0.5142   -0.7009 C   0  0  0  0  0  0  0  0  0  0  0  0
   -0.0424    1.4460   -0.2250 O   0  0  0  0  0  0  0  0  0  0  0  0
    0.5100    0.1227   -2.1866 C   0  0  2  0  0  0  0  0  0  0  0  0
   -0.4695   -1.0292   -2.3745 C   0  0  0  0  0  0  0  0  0  0  0  0
    1.8240   -0.2248   -2.7694 N   0  0  0  0  0  0  0  0  0  0  0  0
   -0.1911   -1.7063    2.3025 H   0  0  0  0  0  0  0  0  0  0  0  0
   -1.0255   -0.2980    1.6182 H   0  0  0  0  0  0  0  0  0  0  0  0
   -0.5582   -0.3078    3.3175 H   0  0  0  0  0  0  0  0  0  0  0  0
    1.0284    1.1114    2.0109 H   0  0  0  0  0  0  0  0  0  0  0  0
    1.8833   -0.1017    3.9922 H   0  0  0  0  0  0  0  0  0  0  0  0
    3.1391    0.0465    2.7619 H   0  0  0  0  0  0  0  0  0  0  0  0
    2.2993   -1.5019    2.9981 H   0  0  0  0  0  0  0  0  0  0  0  0
    0.1349    0.9995   -2.7274 H   0  0  0  0  0  0  0  0  0  0  0  0
   -0.6171   -1.2484   -3.4376 H   0  0  0  0  0  0  0  0  0  0  0  0
   -1.4456   -0.7808   -1.9433 H   0  0  0  0  0  0  0  0  0  0  0  0
   -0.1211   -1.9461   -1.8861 H   0  0  0  0  0  0  0  0  0  0  0  0
    2.4599    0.5652   -2.6540 H   0  0  0  0  0  0  0  0  0  0  0  0
    2.2334   -0.9883   -2.2263 H   0  0  0  0  0  0  0  0  0  0  0  0
  1  2  1  0
  2  3  1  0
  2  4  1  0
  4  5  1  0
  5  6  2  0
  5  7  1  0
  7  8  1  0
  7  9  1  0
  1 10  1  0
  1 11  1  0
  1 12  1  0
  2 13  1  0
  3 14  1  0
  3 15  1  0
  3 16  1  0
  7 17  1  6
  8 18  1  0
  8 19  1  0
  8 20  1  0
  9 21  1  0
  9 22  1  0
M  END
