
     RDKit          3D

 30 30  0  0  0  0  0  0  0  0999 V2000
    2.9250    0.6208   -2.4123 C   0  0  0  0  0  0  0  0  0  0  0  0
    1.7594    1.5941   -2.2022 C   0  0  1  0  0  0  0  0  0  0  0  0
    0.8243    1.4631   -3.3221 N   0  0  0  0  0  0  0  0  0  0  0  0
    0.9909    1.4678   -0.8930 C   0  0  0  0  0  0  0  0  0  0  0  0
    0.0049    2.5927   -0.6552 C   0  0  0  0  0  0  0  0  0  0  0  0
    1.1917    0.4698   -0.0055 C   0  0  0  0  0  0  0  0  0  0  0  0
    0.4719    0.2896    1.2595 C   0  0  0  0  0  0  0  0  0  0  0  0
    1.1441    0.4676    2.4715 C   0  0  0  0  0  0  0  0  0  0  0  0
    0.4728    0.2830    3.6833 C   0  0  0  0  0  0  0  0  0  0  0  0
   -0.8803   -0.0762    3.6979 C   0  0  0  0  0  0  0  0  0  0  0  0
   -1.5916   -0.3057    4.9984 C   0  0  0  0  0  0  0  0  0  0  0  0
   -1.5451   -0.2736    2.4819 C   0  0  0  0  0  0  0  0  0  0  0  0
   -0.8741   -0.0890    1.2702 C   0  0  0  0  0  0  0  0  0  0  0  0
    3.6597    0.7086   -1.6042 H   0  0  0  0  0  0  0  0  0  0  0  0
    3.4487    0.8401   -3.3502 H   0  0  0  0  0  0  0  0  0  0  0  0
    2.5877   -0.4210   -2.4599 H   0  0  0  0  0  0  0  0  0  0  0  0
    2.1849    2.6052   -2.2369 H   0  0  0  0  0  0  0  0  0  0  0  0
    0.4453    0.5170   -3.3210 H   0  0  0  0  0  0  0  0  0  0  0  0
    1.3317    1.5610   -4.1993 H   0  0  0  0  0  0  0  0  0  0  0  0
   -0.8551    2.4973   -1.3258 H   0  0  0  0  0  0  0  0  0  0  0  0
   -0.3738    2.6280    0.3699 H   0  0  0  0  0  0  0  0  0  0  0  0
    0.4835    3.5606   -0.8406 H   0  0  0  0  0  0  0  0  0  0  0  0
    1.9284   -0.3078   -0.1877 H   0  0  0  0  0  0  0  0  0  0  0  0
    2.1926    0.7545    2.4811 H   0  0  0  0  0  0  0  0  0  0  0  0
    1.0138    0.4237    4.6161 H   0  0  0  0  0  0  0  0  0  0  0  0
   -1.4850   -1.3512    5.3036 H   0  0  0  0  0  0  0  0  0  0  0  0
   -2.6571   -0.0699    4.9077 H   0  0  0  0  0  0  0  0  0  0  0  0
   -1.1831    0.3366    5.7856 H   0  0  0  0  0  0  0  0  0  0  0  0
   -2.5910   -0.5714    2.4687 H   0  0  0  0  0  0  0  0  0  0  0  0
   -1.4071   -0.2421    0.3349 H   0  0  0  0  0  0  0  0  0  0  0  0
  1  2  1  0
  2  3  1  0
  2  4  1  0
  4  5  1  0
  4  6  2  0
  6  7  1  0
  7  8  2  0
  8  9  1  0
  9 10  2  0
 10 11  1  0
 10 12  1  0
 12 13  2  0
 13  7  1  0
  1 14  1  0
  1 15  1  0
  1 16  1  0
  2 17  1  1
  3 18  1  0
  3 19  1  0
  5 20  1  0
  5 21  1  0
  5 22  1  0
  6 23  1  0
  8 24  1  0
  9 25  1  0
 11 26  1  0
 11 27  1  0
 11 28  1  0
 12 29  1  0
 13 30  1  0
M  END
