
     RDKit          3D

 27 27  0  0  0  0  0  0  0  0999 V2000
    3.4806   -1.5908    0.6636 C   0  0  0  0  0  0  0  0  0  0  0  0
    2.3512   -1.9530   -0.3065 C   0  0  1  0  0  0  0  0  0  0  0  0
    2.1176   -3.3933   -0.2044 N   0  0  0  0  0  0  0  0  0  0  0  0
    1.0382   -1.1968   -0.1324 C   0  0  0  0  0  0  0  0  0  0  0  0
    0.1034   -1.3007   -1.3190 C   0  0  0  0  0  0  0  0  0  0  0  0
    0.7495   -0.4614    0.9629 C   0  0  0  0  0  0  0  0  0  0  0  0
   -0.4924    0.2839    1.1841 C   0  0  0  0  0  0  0  0  0  0  0  0
   -0.5022    1.6759    1.0429 C   0  0  0  0  0  0  0  0  0  0  0  0
   -1.6815    2.3945    1.2548 C   0  0  0  0  0  0  0  0  0  0  0  0
   -2.8488    1.7202    1.6098 C   0  0  0  0  0  0  0  0  0  0  0  0
   -4.3010    2.6054    1.8700 Cl  0  0  0  0  0  0  0  0  0  0  0  0
   -2.8479    0.3340    1.7557 C   0  0  0  0  0  0  0  0  0  0  0  0
   -1.6688   -0.3846    1.5436 C   0  0  0  0  0  0  0  0  0  0  0  0
    3.2389   -1.8560    1.6994 H   0  0  0  0  0  0  0  0  0  0  0  0
    3.7006   -0.5181    0.6258 H   0  0  0  0  0  0  0  0  0  0  0  0
    4.4025   -2.1214    0.3973 H   0  0  0  0  0  0  0  0  0  0  0  0
    2.7312   -1.7403   -1.3138 H   0  0  0  0  0  0  0  0  0  0  0  0
    1.4365   -3.6816   -0.9025 H   0  0  0  0  0  0  0  0  0  0  0  0
    1.7047   -3.5975    0.7043 H   0  0  0  0  0  0  0  0  0  0  0  0
    0.6440   -1.0817   -2.2462 H   0  0  0  0  0  0  0  0  0  0  0  0
   -0.7346   -0.5996   -1.2755 H   0  0  0  0  0  0  0  0  0  0  0  0
   -0.3139   -2.3099   -1.3912 H   0  0  0  0  0  0  0  0  0  0  0  0
    1.4494   -0.3817    1.7909 H   0  0  0  0  0  0  0  0  0  0  0  0
    0.4048    2.2068    0.7630 H   0  0  0  0  0  0  0  0  0  0  0  0
   -1.6821    3.4751    1.1408 H   0  0  0  0  0  0  0  0  0  0  0  0
   -3.7573   -0.1918    2.0333 H   0  0  0  0  0  0  0  0  0  0  0  0
   -1.6725   -1.4660    1.6589 H   0  0  0  0  0  0  0  0  0  0  0  0
  1  2  1  0
  2  3  1  0
  2  4  1  0
  4  5  1  0
  4  6  2  0
  6  7  1  0
  7  8  2  0
  8  9  1  0
  9 10  2  0
 10 11  1  0
 10 12  1  0
 12 13  2  0
 13  7  1  0
  1 14  1  0
  1 15  1  0
  1 16  1  0
  2 17  1  6
  3 18  1  0
  3 19  1  0
  5 20  1  0
  5 21  1  0
  5 22  1  0
  6 23  1  0
  8 24  1  0
  9 25  1  0
 12 26  1  0
 13 27  1  0
M  END
