
     RDKit          3D

 30 30  0  0  0  0  0  0  0  0999 V2000
    2.4386   -0.1761    0.2653 C   0  0  0  0  0  0  0  0  0  0  0  0
    1.1797    0.3083    0.9741 C   0  0  0  0  0  0  0  0  0  0  0  0
    0.1479    0.9084    0.0327 C   0  0  0  0  0  0  0  0  0  0  0  0
   -0.7718    0.1683   -0.6252 C   0  0  0  0  0  0  0  0  0  0  0  0
   -0.9128   -1.2878   -0.5503 C   0  0  0  0  0  0  0  0  0  0  0  0
   -0.3842   -2.0939   -1.5632 C   0  0  0  0  0  0  0  0  0  0  0  0
   -0.5231   -3.4818   -1.5011 C   0  0  0  0  0  0  0  0  0  0  0  0
   -1.1941   -4.0688   -0.4288 C   0  0  0  0  0  0  0  0  0  0  0  0
   -1.7269   -3.2696    0.5820 C   0  0  0  0  0  0  0  0  0  0  0  0
   -1.5884   -1.8816    0.5212 C   0  0  0  0  0  0  0  0  0  0  0  0
    0.1341    2.4199   -0.1297 C   0  0  1  0  0  0  0  0  0  0  0  0
   -0.3554    3.1293    1.1345 C   0  0  0  0  0  0  0  0  0  0  0  0
    1.4495    2.9285   -0.5053 N   0  0  0  0  0  0  0  0  0  0  0  0
    3.1279   -0.6189    0.9919 H   0  0  0  0  0  0  0  0  0  0  0  0
    2.9653    0.6423   -0.2336 H   0  0  0  0  0  0  0  0  0  0  0  0
    2.2111   -0.9393   -0.4848 H   0  0  0  0  0  0  0  0  0  0  0  0
    0.7448   -0.5296    1.5310 H   0  0  0  0  0  0  0  0  0  0  0  0
    1.4625    1.0361    1.7427 H   0  0  0  0  0  0  0  0  0  0  0  0
   -1.4957    0.6431   -1.2844 H   0  0  0  0  0  0  0  0  0  0  0  0
    0.1444   -1.6460   -2.4011 H   0  0  0  0  0  0  0  0  0  0  0  0
   -0.1063   -4.1043   -2.2883 H   0  0  0  0  0  0  0  0  0  0  0  0
   -1.3009   -5.1493   -0.3804 H   0  0  0  0  0  0  0  0  0  0  0  0
   -2.2495   -3.7262    1.4183 H   0  0  0  0  0  0  0  0  0  0  0  0
   -2.0058   -1.2663    1.3144 H   0  0  0  0  0  0  0  0  0  0  0  0
   -0.5564    2.6934   -0.9382 H   0  0  0  0  0  0  0  0  0  0  0  0
    0.3311    2.9992    1.9781 H   0  0  0  0  0  0  0  0  0  0  0  0
   -1.3372    2.7498    1.4393 H   0  0  0  0  0  0  0  0  0  0  0  0
   -0.4590    4.2063    0.9585 H   0  0  0  0  0  0  0  0  0  0  0  0
    1.3917    3.9328   -0.6613 H   0  0  0  0  0  0  0  0  0  0  0  0
    1.7137    2.5161   -1.3987 H   0  0  0  0  0  0  0  0  0  0  0  0
  1  2  1  0
  2  3  1  0
  3  4  2  0
  4  5  1  0
  5  6  2  0
  6  7  1  0
  7  8  2  0
  8  9  1  0
  9 10  2  0
  3 11  1  0
 11 12  1  0
 11 13  1  0
 10  5  1  0
  1 14  1  0
  1 15  1  0
  1 16  1  0
  2 17  1  0
  2 18  1  0
  4 19  1  0
  6 20  1  0
  7 21  1  0
  8 22  1  0
  9 23  1  0
 10 24  1  0
 11 25  1  6
 12 26  1  0
 12 27  1  0
 12 28  1  0
 13 29  1  0
 13 30  1  0
M  END
