
     RDKit          3D

 24 24  0  0  0  0  0  0  0  0999 V2000
   -1.7042   -1.6092    3.3866 C   0  0  0  0  0  0  0  0  0  0  0  0
   -2.2909   -1.4529    1.9828 C   0  0  2  0  0  0  0  0  0  0  0  0
   -3.7496   -1.2936    2.1079 N   0  0  0  0  0  0  0  0  0  0  0  0
   -1.9766   -2.6547    1.0671 C   0  0  0  0  0  0  0  0  0  0  0  0
   -0.1936   -2.8915    0.7104 S   0  0  0  0  0  0  0  0  0  0  0  0
    0.1400   -1.4320   -0.2578 C   0  0  0  0  0  0  0  0  0  0  0  0
   -0.5071   -1.2009   -1.4755 C   0  0  0  0  0  0  0  0  0  0  0  0
   -0.2255   -0.0505   -2.2158 C   0  0  0  0  0  0  0  0  0  0  0  0
    0.7100    0.8700   -1.7464 C   0  0  0  0  0  0  0  0  0  0  0  0
    1.3697    0.6381   -0.5407 C   0  0  0  0  0  0  0  0  0  0  0  0
    1.0889   -0.5124    0.1994 C   0  0  0  0  0  0  0  0  0  0  0  0
   -2.0550   -2.5295    3.8672 H   0  0  0  0  0  0  0  0  0  0  0  0
   -0.6104   -1.6349    3.3629 H   0  0  0  0  0  0  0  0  0  0  0  0
   -1.9891   -0.7663    4.0269 H   0  0  0  0  0  0  0  0  0  0  0  0
   -1.9007   -0.5301    1.5387 H   0  0  0  0  0  0  0  0  0  0  0  0
   -4.1460   -1.0653    1.1963 H   0  0  0  0  0  0  0  0  0  0  0  0
   -3.9526   -0.4951    2.7094 H   0  0  0  0  0  0  0  0  0  0  0  0
   -2.3317   -3.5802    1.5359 H   0  0  0  0  0  0  0  0  0  0  0  0
   -2.5129   -2.5626    0.1160 H   0  0  0  0  0  0  0  0  0  0  0  0
   -1.2250   -1.9176   -1.8658 H   0  0  0  0  0  0  0  0  0  0  0  0
   -0.7306    0.1227   -3.1627 H   0  0  0  0  0  0  0  0  0  0  0  0
    0.9319    1.7634   -2.3246 H   0  0  0  0  0  0  0  0  0  0  0  0
    2.1068    1.3498   -0.1777 H   0  0  0  0  0  0  0  0  0  0  0  0
    1.6156   -0.6836    1.1353 H   0  0  0  0  0  0  0  0  0  0  0  0
  1  2  1  0
  2  3  1  0
  2  4  1  0
  4  5  1  0
  5  6  1  0
  6  7  2  0
  7  8  1  0
  8  9  2  0
  9 10  1  0
 10 11  2  0
 11  6  1  0
  1 12  1  0
  1 13  1  0
  1 14  1  0
  2 15  1  6
  3 16  1  0
  3 17  1  0
  4 18  1  0
  4 19  1  0
  7 20  1  0
  8 21  1  0
  9 22  1  0
 10 23  1  0
 11 24  1  0
M  END
