
     RDKit          3D

 18 17  0  0  0  0  0  0  0  0999 V2000
   -1.7403    0.6324    0.2329 N   0  0  0  0  0  0  0  0  0  0  0  0
   -0.8353    0.7164    1.3980 C   0  0  1  0  0  0  0  0  0  0  0  0
    0.2750   -0.3473    1.3733 C   0  0  0  0  0  0  0  0  0  0  0  0
   -0.1906   -1.8018    1.4472 C   0  0  0  0  0  0  0  0  0  0  0  0
   -0.9710   -2.2312    3.0296 S   0  0  0  0  0  0  0  0  0  0  0  0
   -0.2035    2.1156    1.5383 C   0  0  0  0  0  0  0  0  0  0  0  0
   -0.0943    2.6873    2.6201 O   0  0  0  0  0  0  0  0  0  0  0  0
    0.4468    2.8332    0.0509 S   0  0  0  0  0  0  0  0  0  0  0  0
    2.2592    3.5548    0.7032 S   0  0  0  0  0  0  0  0  0  0  0  0
   -1.2040    0.6977   -0.6335 H   0  0  0  0  0  0  0  0  0  0  0  0
   -2.2166   -0.2676    0.2137 H   0  0  0  0  0  0  0  0  0  0  0  0
   -1.4583    0.5920    2.2908 H   0  0  0  0  0  0  0  0  0  0  0  0
    0.9844   -0.1530    2.1895 H   0  0  0  0  0  0  0  0  0  0  0  0
    0.8604   -0.2338    0.4506 H   0  0  0  0  0  0  0  0  0  0  0  0
   -0.8832   -2.0402    0.6347 H   0  0  0  0  0  0  0  0  0  0  0  0
    0.6797   -2.4561    1.3293 H   0  0  0  0  0  0  0  0  0  0  0  0
   -2.1153   -1.5557    2.8468 H   0  0  0  0  0  0  0  0  0  0  0  0
    1.8308    4.6611    1.3314 H   0  0  0  0  0  0  0  0  0  0  0  0
  1  2  1  0
  2  3  1  0
  3  4  1  0
  4  5  1  0
  2  6  1  0
  6  7  2  0
  6  8  1  0
  8  9  1  0
  1 10  1  0
  1 11  1  0
  2 12  1  1
  3 13  1  0
  3 14  1  0
  4 15  1  0
  4 16  1  0
  5 17  1  0
  9 18  1  0
M  END
