
     RDKit          3D

 23 23  0  0  0  0  0  0  0  0999 V2000
   -1.8402    3.3512   -0.2272 C   0  0  0  0  0  0  0  0  0  0  0  0
   -0.6827    2.3992    0.0704 C   0  0  1  0  0  0  0  0  0  0  0  0
   -0.2693    2.5876    1.4660 N   0  0  0  0  0  0  0  0  0  0  0  0
   -1.1043    0.9402   -0.2056 C   0  0  0  0  0  0  0  0  0  0  0  0
    0.0408   -0.0461   -0.1268 C   0  0  0  0  0  0  0  0  0  0  0  0
    0.9399   -0.1800   -1.1950 C   0  0  0  0  0  0  0  0  0  0  0  0
    2.0057   -1.0842   -1.1203 C   0  0  0  0  0  0  0  0  0  0  0  0
    3.0678   -1.1866   -2.4798 Cl  0  0  0  0  0  0  0  0  0  0  0  0
    2.1805   -1.8621    0.0287 C   0  0  0  0  0  0  0  0  0  0  0  0
    3.4732   -2.9964    0.1936 Cl  0  0  0  0  0  0  0  0  0  0  0  0
    1.2892   -1.7312    1.0970 C   0  0  0  0  0  0  0  0  0  0  0  0
    0.2263   -0.8283    1.0200 C   0  0  0  0  0  0  0  0  0  0  0  0
   -2.1531    3.2637   -1.2733 H   0  0  0  0  0  0  0  0  0  0  0  0
   -1.5476    4.3934   -0.0571 H   0  0  0  0  0  0  0  0  0  0  0  0
   -2.7102    3.1363    0.4036 H   0  0  0  0  0  0  0  0  0  0  0  0
    0.1606    2.6679   -0.5775 H   0  0  0  0  0  0  0  0  0  0  0  0
    0.5505    2.0097    1.6544 H   0  0  0  0  0  0  0  0  0  0  0  0
    0.0300    3.5522    1.6064 H   0  0  0  0  0  0  0  0  0  0  0  0
   -1.9016    0.6376    0.4867 H   0  0  0  0  0  0  0  0  0  0  0  0
   -1.5459    0.8664   -1.2086 H   0  0  0  0  0  0  0  0  0  0  0  0
    0.8080    0.4222   -2.0917 H   0  0  0  0  0  0  0  0  0  0  0  0
    1.4164   -2.3302    1.9957 H   0  0  0  0  0  0  0  0  0  0  0  0
   -0.4564   -0.7347    1.8635 H   0  0  0  0  0  0  0  0  0  0  0  0
  1  2  1  0
  2  3  1  0
  2  4  1  0
  4  5  1  0
  5  6  2  0
  6  7  1  0
  7  8  1  0
  7  9  2  0
  9 10  1  0
  9 11  1  0
 11 12  2  0
 12  5  1  0
  1 13  1  0
  1 14  1  0
  1 15  1  0
  2 16  1  6
  3 17  1  0
  3 18  1  0
  4 19  1  0
  4 20  1  0
  6 21  1  0
 11 22  1  0
 12 23  1  0
M  END
