
     RDKit          3D

 23 23  0  0  0  0  0  0  0  0999 V2000
    0.8248    0.0665   -1.2640 C   0  0  0  0  0  0  0  0  0  0  0  0
    0.1058    1.2694   -0.6516 C   0  0  1  0  0  0  0  0  0  0  0  0
   -0.0166    2.3084   -1.6829 N   0  0  0  0  0  0  0  0  0  0  0  0
   -1.2971    0.9072   -0.1182 C   0  0  0  0  0  0  0  0  0  0  0  0
   -1.2836   -0.0230    1.0779 C   0  0  0  0  0  0  0  0  0  0  0  0
   -1.0066    0.4179    2.3840 C   0  0  0  0  0  0  0  0  0  0  0  0
   -0.6783    2.0776    2.7373 Cl  0  0  0  0  0  0  0  0  0  0  0  0
   -0.9960   -0.4809    3.4543 C   0  0  0  0  0  0  0  0  0  0  0  0
   -1.2633   -1.8277    3.2281 C   0  0  0  0  0  0  0  0  0  0  0  0
   -1.2494   -2.9348    4.5450 Cl  0  0  0  0  0  0  0  0  0  0  0  0
   -1.5426   -2.2860    1.9442 C   0  0  0  0  0  0  0  0  0  0  0  0
   -1.5535   -1.3883    0.8750 C   0  0  0  0  0  0  0  0  0  0  0  0
    0.2341   -0.3895   -2.0663 H   0  0  0  0  0  0  0  0  0  0  0  0
    1.7936    0.3602   -1.6844 H   0  0  0  0  0  0  0  0  0  0  0  0
    1.0233   -0.7012   -0.5095 H   0  0  0  0  0  0  0  0  0  0  0  0
    0.7289    1.6677    0.1567 H   0  0  0  0  0  0  0  0  0  0  0  0
   -0.4129    3.1521   -1.2680 H   0  0  0  0  0  0  0  0  0  0  0  0
    0.9119    2.5700   -2.0143 H   0  0  0  0  0  0  0  0  0  0  0  0
   -1.8937    0.4567   -0.9239 H   0  0  0  0  0  0  0  0  0  0  0  0
   -1.8466    1.8173    0.1573 H   0  0  0  0  0  0  0  0  0  0  0  0
   -0.7821   -0.1311    4.4607 H   0  0  0  0  0  0  0  0  0  0  0  0
   -1.7525   -3.3380    1.7673 H   0  0  0  0  0  0  0  0  0  0  0  0
   -1.7719   -1.7625   -0.1242 H   0  0  0  0  0  0  0  0  0  0  0  0
  1  2  1  0
  2  3  1  0
  2  4  1  0
  4  5  1  0
  5  6  2  0
  6  7  1  0
  6  8  1  0
  8  9  2  0
  9 10  1  0
  9 11  1  0
 11 12  2  0
 12  5  1  0
  1 13  1  0
  1 14  1  0
  1 15  1  0
  2 16  1  1
  3 17  1  0
  3 18  1  0
  4 19  1  0
  4 20  1  0
  8 21  1  0
 11 22  1  0
 12 23  1  0
M  END
