
     RDKit          3D

 29 29  0  0  0  0  0  0  0  0999 V2000
    1.9108    0.6476   -2.2974 C   0  0  0  0  0  0  0  0  0  0  0  0
    2.1604    1.8931   -1.4683 C   0  0  0  0  0  0  0  0  0  0  0  0
    1.5338    1.8942   -0.0676 C   0  0  0  0  0  0  0  0  0  0  0  0
   -0.0089    1.8819   -0.0344 C   0  0  2  0  0  0  0  0  0  0  0  0
   -0.4505    2.6424    1.1484 N   0  0  0  0  0  0  0  0  0  0  0  0
   -0.6630    0.4740   -0.0718 C   0  0  0  0  0  0  0  0  0  0  0  0
   -0.4345   -0.4184    1.1301 C   0  0  0  0  0  0  0  0  0  0  0  0
   -1.3095   -0.3773    2.2257 C   0  0  0  0  0  0  0  0  0  0  0  0
   -1.0994   -1.1980    3.3353 C   0  0  0  0  0  0  0  0  0  0  0  0
   -0.0162   -2.0733    3.3605 C   0  0  0  0  0  0  0  0  0  0  0  0
    0.8544   -2.1316    2.2746 C   0  0  0  0  0  0  0  0  0  0  0  0
    0.6449   -1.3115    1.1644 C   0  0  0  0  0  0  0  0  0  0  0  0
    2.5424    0.6626   -3.1920 H   0  0  0  0  0  0  0  0  0  0  0  0
    0.8736    0.5991   -2.6390 H   0  0  0  0  0  0  0  0  0  0  0  0
    2.1471   -0.2602   -1.7354 H   0  0  0  0  0  0  0  0  0  0  0  0
    1.8140    2.7715   -2.0259 H   0  0  0  0  0  0  0  0  0  0  0  0
    3.2448    2.0118   -1.3500 H   0  0  0  0  0  0  0  0  0  0  0  0
    1.9527    1.0780    0.5296 H   0  0  0  0  0  0  0  0  0  0  0  0
    1.8920    2.8170    0.4114 H   0  0  0  0  0  0  0  0  0  0  0  0
   -0.3730    2.4354   -0.9088 H   0  0  0  0  0  0  0  0  0  0  0  0
   -0.1010    2.1766    1.9882 H   0  0  0  0  0  0  0  0  0  0  0  0
   -1.4663    2.6097    1.2154 H   0  0  0  0  0  0  0  0  0  0  0  0
   -0.3524   -0.0695   -0.9691 H   0  0  0  0  0  0  0  0  0  0  0  0
   -1.7484    0.6006   -0.1943 H   0  0  0  0  0  0  0  0  0  0  0  0
   -2.1657    0.2932    2.2214 H   0  0  0  0  0  0  0  0  0  0  0  0
   -1.7832   -1.1562    4.1790 H   0  0  0  0  0  0  0  0  0  0  0  0
    0.1471   -2.7128    4.2238 H   0  0  0  0  0  0  0  0  0  0  0  0
    1.6971   -2.8179    2.2906 H   0  0  0  0  0  0  0  0  0  0  0  0
    1.3331   -1.3768    0.3253 H   0  0  0  0  0  0  0  0  0  0  0  0
  1  2  1  0
  2  3  1  0
  3  4  1  0
  4  5  1  0
  4  6  1  0
  6  7  1  0
  7  8  2  0
  8  9  1  0
  9 10  2  0
 10 11  1  0
 11 12  2  0
 12  7  1  0
  1 13  1  0
  1 14  1  0
  1 15  1  0
  2 16  1  0
  2 17  1  0
  3 18  1  0
  3 19  1  0
  4 20  1  6
  5 21  1  0
  5 22  1  0
  6 23  1  0
  6 24  1  0
  8 25  1  0
  9 26  1  0
 10 27  1  0
 11 28  1  0
 12 29  1  0
M  END
