
     RDKit          3D

 26 26  0  0  0  0  0  0  0  0999 V2000
   -0.0277   -3.4937    0.2373 C   0  0  0  0  0  0  0  0  0  0  0  0
   -0.6434   -2.0933    0.2294 C   0  0  1  0  0  0  0  0  0  0  0  0
   -0.7330   -1.5956    1.5982 N   0  0  0  0  0  0  0  0  0  0  0  0
    0.1756   -1.1575   -0.6803 C   0  0  0  0  0  0  0  0  0  0  0  0
   -0.3988    0.2594   -0.8257 C   0  0  0  0  0  0  0  0  0  0  0  0
    0.1296    1.2486    0.1864 C   0  0  0  0  0  0  0  0  0  0  0  0
   -0.6718    1.6758    1.2538 C   0  0  0  0  0  0  0  0  0  0  0  0
   -0.1739    2.5888    2.1836 C   0  0  0  0  0  0  0  0  0  0  0  0
   -1.2637    3.1504    3.6234 Br  0  0  0  0  0  0  0  0  0  0  0  0
    1.1207    3.0895    2.0625 C   0  0  0  0  0  0  0  0  0  0  0  0
    1.9248    2.6711    1.0032 C   0  0  0  0  0  0  0  0  0  0  0  0
    1.4324    1.7557    0.0708 C   0  0  0  0  0  0  0  0  0  0  0  0
    0.9911   -3.4827    0.6409 H   0  0  0  0  0  0  0  0  0  0  0  0
    0.0165   -3.9027   -0.7779 H   0  0  0  0  0  0  0  0  0  0  0  0
   -0.6250   -4.1833    0.8442 H   0  0  0  0  0  0  0  0  0  0  0  0
   -1.6616   -2.1693   -0.1699 H   0  0  0  0  0  0  0  0  0  0  0  0
   -1.1298   -2.3071    2.2100 H   0  0  0  0  0  0  0  0  0  0  0  0
    0.1989   -1.3913    1.9596 H   0  0  0  0  0  0  0  0  0  0  0  0
    1.2217   -1.1236   -0.3495 H   0  0  0  0  0  0  0  0  0  0  0  0
    0.1870   -1.6077   -1.6823 H   0  0  0  0  0  0  0  0  0  0  0  0
   -0.1344    0.6438   -1.8202 H   0  0  0  0  0  0  0  0  0  0  0  0
   -1.4954    0.2360   -0.8067 H   0  0  0  0  0  0  0  0  0  0  0  0
   -1.6791    1.2802    1.3641 H   0  0  0  0  0  0  0  0  0  0  0  0
    1.5101    3.8015    2.7847 H   0  0  0  0  0  0  0  0  0  0  0  0
    2.9354    3.0583    0.9025 H   0  0  0  0  0  0  0  0  0  0  0  0
    2.0709    1.4398   -0.7516 H   0  0  0  0  0  0  0  0  0  0  0  0
  1  2  1  0
  2  3  1  0
  2  4  1  0
  4  5  1  0
  5  6  1  0
  6  7  2  0
  7  8  1  0
  8  9  1  0
  8 10  2  0
 10 11  1  0
 11 12  2  0
 12  6  1  0
  1 13  1  0
  1 14  1  0
  1 15  1  0
  2 16  1  6
  3 17  1  0
  3 18  1  0
  4 19  1  0
  4 20  1  0
  5 21  1  0
  5 22  1  0
  7 23  1  0
 10 24  1  0
 11 25  1  0
 12 26  1  0
M  END
