
     RDKit          3D

 32 32  0  0  0  0  0  0  0  0999 V2000
    0.7580   -0.7810    2.0036 C   0  0  0  0  0  0  0  0  0  0  0  0
    1.3770   -1.3341    0.7143 C   0  0  0  0  0  0  0  0  0  0  0  0
    2.7847   -0.7564    0.5324 C   0  0  0  0  0  0  0  0  0  0  0  0
    0.4379   -1.1307   -0.5133 C   0  0  2  0  0  0  0  0  0  0  0  0
    0.9303   -1.9134   -1.6491 N   0  0  0  0  0  0  0  0  0  0  0  0
    0.2434    0.3552   -0.9061 C   0  0  0  0  0  0  0  0  0  0  0  0
   -0.8521    0.7087   -1.9352 C   0  0  0  0  0  0  0  0  0  0  0  0
   -0.5098    0.3818   -3.3982 C   0  0  0  0  0  0  0  0  0  0  0  0
   -1.7930   -0.1780   -3.9978 C   0  0  0  0  0  0  0  0  0  0  0  0
   -2.4594   -0.8798   -2.8279 C   0  0  0  0  0  0  0  0  0  0  0  0
   -2.2285    0.0796   -1.6703 C   0  0  0  0  0  0  0  0  0  0  0  0
    1.3494   -1.0889    2.8730 H   0  0  0  0  0  0  0  0  0  0  0  0
    0.7198    0.3125    2.0057 H   0  0  0  0  0  0  0  0  0  0  0  0
   -0.2589   -1.1617    2.1442 H   0  0  0  0  0  0  0  0  0  0  0  0
    1.4887   -2.4170    0.8682 H   0  0  0  0  0  0  0  0  0  0  0  0
    3.2832   -1.1764   -0.3460 H   0  0  0  0  0  0  0  0  0  0  0  0
    3.4083   -0.9921    1.4021 H   0  0  0  0  0  0  0  0  0  0  0  0
    2.7653    0.3331    0.4290 H   0  0  0  0  0  0  0  0  0  0  0  0
   -0.5335   -1.5559   -0.2403 H   0  0  0  0  0  0  0  0  0  0  0  0
    1.8190   -1.5381   -1.9758 H   0  0  0  0  0  0  0  0  0  0  0  0
    1.1130   -2.8727   -1.3581 H   0  0  0  0  0  0  0  0  0  0  0  0
   -0.0053    0.9170    0.0022 H   0  0  0  0  0  0  0  0  0  0  0  0
    1.1934    0.7726   -1.2644 H   0  0  0  0  0  0  0  0  0  0  0  0
   -0.9780    1.7993   -1.8716 H   0  0  0  0  0  0  0  0  0  0  0  0
    0.2944   -0.3507   -3.4895 H   0  0  0  0  0  0  0  0  0  0  0  0
   -0.1812    1.2756   -3.9399 H   0  0  0  0  0  0  0  0  0  0  0  0
   -2.4273    0.6397   -4.3603 H   0  0  0  0  0  0  0  0  0  0  0  0
   -1.5987   -0.8547   -4.8349 H   0  0  0  0  0  0  0  0  0  0  0  0
   -3.5224   -1.0658   -3.0060 H   0  0  0  0  0  0  0  0  0  0  0  0
   -1.9719   -1.8412   -2.6306 H   0  0  0  0  0  0  0  0  0  0  0  0
   -2.3237   -0.4076   -0.6968 H   0  0  0  0  0  0  0  0  0  0  0  0
   -2.9926    0.8672   -1.7023 H   0  0  0  0  0  0  0  0  0  0  0  0
  1  2  1  0
  2  3  1  0
  2  4  1  0
  4  5  1  0
  4  6  1  0
  6  7  1  0
  7  8  1  0
  8  9  1  0
  9 10  1  0
 10 11  1  0
 11  7  1  0
  1 12  1  0
  1 13  1  0
  1 14  1  0
  2 15  1  0
  3 16  1  0
  3 17  1  0
  3 18  1  0
  4 19  1  1
  5 20  1  0
  5 21  1  0
  6 22  1  0
  6 23  1  0
  7 24  1  0
  8 25  1  0
  8 26  1  0
  9 27  1  0
  9 28  1  0
 10 29  1  0
 10 30  1  0
 11 31  1  0
 11 32  1  0
M  END
