
     RDKit          3D

 25 24  0  0  0  0  0  0  0  0999 V2000
   -1.0214    1.2919    0.4523 N   0  0  0  0  0  0  0  0  0  0  0  0
   -1.1888    0.7677   -0.9366 C   0  0  1  0  0  0  0  0  0  0  0  0
   -2.4769    1.2982   -1.5993 C   0  0  0  0  0  0  0  0  0  0  0  0
   -3.9625    0.9680   -0.5891 S   0  0  0  0  0  0  0  0  0  0  0  0
    0.0165    1.1205   -1.8375 C   0  0  0  0  0  0  0  0  0  0  0  0
   -0.1132    1.4288   -3.0193 O   0  0  0  0  0  0  0  0  0  0  0  0
    1.6341    1.1203   -1.1302 S   0  0  0  0  0  0  0  0  0  0  0  0
    1.5022   -0.4204   -0.3056 C   0  0  0  0  0  0  0  0  0  0  0  0
    1.0243   -1.4064   -0.8582 O   0  0  0  0  0  0  0  0  0  0  0  0
    1.9916   -0.4228    1.1482 C   0  0  1  0  0  0  0  0  0  0  0  0
    0.8389   -0.6838    2.0505 N   0  0  0  0  0  0  0  0  0  0  0  0
    3.0828   -1.4959    1.2791 C   0  0  0  0  0  0  0  0  0  0  0  0
    3.8374   -1.5004    2.9374 S   0  0  0  0  0  0  0  0  0  0  0  0
   -1.9008    1.0875    0.9452 H   0  0  0  0  0  0  0  0  0  0  0  0
   -1.0066    2.3157    0.4131 H   0  0  0  0  0  0  0  0  0  0  0  0
   -1.2536   -0.3249   -0.8836 H   0  0  0  0  0  0  0  0  0  0  0  0
   -2.6261    0.8259   -2.5764 H   0  0  0  0  0  0  0  0  0  0  0  0
   -2.4137    2.3801   -1.7631 H   0  0  0  0  0  0  0  0  0  0  0  0
   -4.8534    1.4540   -1.4674 H   0  0  0  0  0  0  0  0  0  0  0  0
    2.4078    0.5580    1.4061 H   0  0  0  0  0  0  0  0  0  0  0  0
    0.4053   -1.5697    1.7783 H   0  0  0  0  0  0  0  0  0  0  0  0
    0.1226    0.0287    1.8553 H   0  0  0  0  0  0  0  0  0  0  0  0
    2.6737   -2.4950    1.0897 H   0  0  0  0  0  0  0  0  0  0  0  0
    3.8774   -1.3287    0.5437 H   0  0  0  0  0  0  0  0  0  0  0  0
    2.6716   -1.4766    3.6068 H   0  0  0  0  0  0  0  0  0  0  0  0
  1  2  1  0
  2  3  1  0
  3  4  1  0
  2  5  1  0
  5  6  2  0
  5  7  1  0
  7  8  1  0
  8  9  2  0
  8 10  1  0
 10 11  1  0
 10 12  1  0
 12 13  1  0
  1 14  1  0
  1 15  1  0
  2 16  1  1
  3 17  1  0
  3 18  1  0
  4 19  1  0
 10 20  1  1
 11 21  1  0
 11 22  1  0
 12 23  1  0
 12 24  1  0
 13 25  1  0
M  END
