
     RDKit          3D

 23 22  0  0  0  0  0  0  0  0999 V2000
   -0.6962   -1.0374   -0.7174 N   0  0  0  0  0  0  0  0  0  0  0  0
    0.4727   -0.3922   -0.0771 C   0  0  1  0  0  0  0  0  0  0  0  0
    1.6227   -1.3748    0.2012 C   0  0  0  0  0  0  0  0  0  0  0  0
    1.1211   -2.7017    1.3513 S   0  0  0  0  0  0  0  0  0  0  0  0
    0.9699    0.7176   -1.0100 C   0  0  0  0  0  0  0  0  0  0  0  0
    1.6955    0.4704   -1.9775 O   0  0  0  0  0  0  0  0  0  0  0  0
    0.5013    2.1335   -0.7387 C   0  0  0  0  0  0  0  0  0  0  0  0
   -0.9736    2.3048   -1.0768 C   0  0  0  0  0  0  0  0  0  0  0  0
   -1.8689    2.0783    0.1222 C   0  0  0  0  0  0  0  0  0  0  0  0
   -3.1944    1.9576   -0.1773 N   0  0  0  0  0  0  0  0  0  0  0  0
   -1.4779    2.0457    1.2829 O   0  0  0  0  0  0  0  0  0  0  0  0
   -0.3816   -1.4559   -1.5977 H   0  0  0  0  0  0  0  0  0  0  0  0
   -0.9604   -1.8382   -0.1364 H   0  0  0  0  0  0  0  0  0  0  0  0
    0.1615    0.0631    0.8685 H   0  0  0  0  0  0  0  0  0  0  0  0
    2.4767   -0.8457    0.6380 H   0  0  0  0  0  0  0  0  0  0  0  0
    1.9710   -1.8479   -0.7238 H   0  0  0  0  0  0  0  0  0  0  0  0
    0.8520   -1.9069    2.3988 H   0  0  0  0  0  0  0  0  0  0  0  0
    1.0937    2.7916   -1.3867 H   0  0  0  0  0  0  0  0  0  0  0  0
    0.7548    2.4012    0.2918 H   0  0  0  0  0  0  0  0  0  0  0  0
   -1.2769    1.6428   -1.8954 H   0  0  0  0  0  0  0  0  0  0  0  0
   -1.1470    3.3388   -1.3992 H   0  0  0  0  0  0  0  0  0  0  0  0
   -3.7960    1.7008    0.5954 H   0  0  0  0  0  0  0  0  0  0  0  0
   -3.4840    1.6542   -1.0977 H   0  0  0  0  0  0  0  0  0  0  0  0
  1  2  1  0
  2  3  1  0
  3  4  1  0
  2  5  1  0
  5  6  2  0
  5  7  1  0
  7  8  1  0
  8  9  1  0
  9 10  1  0
  9 11  2  0
  1 12  1  0
  1 13  1  0
  2 14  1  1
  3 15  1  0
  3 16  1  0
  4 17  1  0
  7 18  1  0
  7 19  1  0
  8 20  1  0
  8 21  1  0
 10 22  1  0
 10 23  1  0
M  END
