
     RDKit          3D

 22 22  0  0  0  0  0  0  0  0999 V2000
    0.3496   -0.5041    2.8352 N   0  0  0  0  0  0  0  0  0  0  0  0
    0.8783    0.5150    1.8970 C   0  0  1  0  0  0  0  0  0  0  0  0
    0.6842    0.0632    0.4403 C   0  0  0  0  0  0  0  0  0  0  0  0
    1.3163    0.9952   -0.5679 C   0  0  0  0  0  0  0  0  0  0  0  0
    0.5175    1.7397   -1.4465 C   0  0  0  0  0  0  0  0  0  0  0  0
    1.1003    2.6093   -2.3697 C   0  0  0  0  0  0  0  0  0  0  0  0
    2.4859    2.7396   -2.4285 C   0  0  0  0  0  0  0  0  0  0  0  0
    3.2907    1.9974   -1.5672 C   0  0  0  0  0  0  0  0  0  0  0  0
    2.7102    1.1274   -0.6429 C   0  0  0  0  0  0  0  0  0  0  0  0
    0.2350    1.8705    2.2009 C   0  0  0  0  0  0  0  0  0  0  0  0
   -1.6021    2.2094    1.7593 Br  0  0  0  0  0  0  0  0  0  0  0  0
    0.8034    2.7637    2.8207 O   0  0  0  0  0  0  0  0  0  0  0  0
    0.8495   -1.3824    2.6953 H   0  0  0  0  0  0  0  0  0  0  0  0
    0.5650   -0.2130    3.7918 H   0  0  0  0  0  0  0  0  0  0  0  0
    1.9506    0.6235    2.1024 H   0  0  0  0  0  0  0  0  0  0  0  0
   -0.3806   -0.0680    0.2104 H   0  0  0  0  0  0  0  0  0  0  0  0
    1.1352   -0.9288    0.2986 H   0  0  0  0  0  0  0  0  0  0  0  0
   -0.5667    1.6507   -1.4230 H   0  0  0  0  0  0  0  0  0  0  0  0
    0.4719    3.1856   -3.0441 H   0  0  0  0  0  0  0  0  0  0  0  0
    2.9384    3.4179   -3.1472 H   0  0  0  0  0  0  0  0  0  0  0  0
    4.3721    2.0963   -1.6160 H   0  0  0  0  0  0  0  0  0  0  0  0
    3.3584    0.5528    0.0149 H   0  0  0  0  0  0  0  0  0  0  0  0
  1  2  1  0
  2  3  1  0
  3  4  1  0
  4  5  2  0
  5  6  1  0
  6  7  2  0
  7  8  1  0
  8  9  2  0
  2 10  1  0
 10 11  1  0
 10 12  2  0
  9  4  1  0
  1 13  1  0
  1 14  1  0
  2 15  1  1
  3 16  1  0
  3 17  1  0
  5 18  1  0
  6 19  1  0
  7 20  1  0
  8 21  1  0
  9 22  1  0
M  END
