
     RDKit          3D

 33 33  0  0  0  0  0  0  0  0999 V2000
    0.9516   -3.5965   -1.8796 C   0  0  0  0  0  0  0  0  0  0  0  0
   -0.0150   -2.4715   -1.7013 C   0  0  0  0  0  0  0  0  0  0  0  0
   -0.9318   -2.4174   -0.7226 C   0  0  0  0  0  0  0  0  0  0  0  0
   -1.9056   -1.2823   -0.5450 C   0  0  0  0  0  0  0  0  0  0  0  0
   -1.7680   -0.5681    0.8185 C   0  0  2  0  0  0  0  0  0  0  0  0
   -2.8087    0.4616    0.9467 N   0  0  0  0  0  0  0  0  0  0  0  0
   -0.3788    0.0489    1.0738 C   0  0  0  0  0  0  0  0  0  0  0  0
    0.0522    1.1070    0.0514 C   0  0  0  0  0  0  0  0  0  0  0  0
    1.4227    1.6549    0.3734 C   0  0  0  0  0  0  0  0  0  0  0  0
    1.5613    2.8285    1.1256 C   0  0  0  0  0  0  0  0  0  0  0  0
    2.8292    3.3233    1.4354 C   0  0  0  0  0  0  0  0  0  0  0  0
    3.9681    2.6477    1.0004 C   0  0  0  0  0  0  0  0  0  0  0  0
    3.8408    1.4758    0.2567 C   0  0  0  0  0  0  0  0  0  0  0  0
    2.5740    0.9797   -0.0542 C   0  0  0  0  0  0  0  0  0  0  0  0
    1.9768   -3.2193   -1.8162 H   0  0  0  0  0  0  0  0  0  0  0  0
    0.8263   -4.3744   -1.1199 H   0  0  0  0  0  0  0  0  0  0  0  0
    0.8129   -4.0544   -2.8636 H   0  0  0  0  0  0  0  0  0  0  0  0
    0.0542   -1.6604   -2.4235 H   0  0  0  0  0  0  0  0  0  0  0  0
   -1.0035   -3.2326   -0.0052 H   0  0  0  0  0  0  0  0  0  0  0  0
   -2.9160   -1.7049   -0.6275 H   0  0  0  0  0  0  0  0  0  0  0  0
   -1.8149   -0.5605   -1.3663 H   0  0  0  0  0  0  0  0  0  0  0  0
   -1.9468   -1.3081    1.6100 H   0  0  0  0  0  0  0  0  0  0  0  0
   -3.7289    0.0286    0.8732 H   0  0  0  0  0  0  0  0  0  0  0  0
   -2.7631    0.8759    1.8775 H   0  0  0  0  0  0  0  0  0  0  0  0
    0.3691   -0.7540    1.1092 H   0  0  0  0  0  0  0  0  0  0  0  0
   -0.3697    0.4953    2.0783 H   0  0  0  0  0  0  0  0  0  0  0  0
    0.0760    0.6887   -0.9611 H   0  0  0  0  0  0  0  0  0  0  0  0
   -0.6694    1.9322    0.0215 H   0  0  0  0  0  0  0  0  0  0  0  0
    0.6807    3.3634    1.4735 H   0  0  0  0  0  0  0  0  0  0  0  0
    2.9276    4.2360    2.0168 H   0  0  0  0  0  0  0  0  0  0  0  0
    4.9546    3.0338    1.2420 H   0  0  0  0  0  0  0  0  0  0  0  0
    4.7282    0.9471   -0.0808 H   0  0  0  0  0  0  0  0  0  0  0  0
    2.4872    0.0619   -0.6315 H   0  0  0  0  0  0  0  0  0  0  0  0
  1  2  1  0
  2  3  2  0
  3  4  1  0
  4  5  1  0
  5  6  1  0
  5  7  1  0
  7  8  1  0
  8  9  1  0
  9 10  2  0
 10 11  1  0
 11 12  2  0
 12 13  1  0
 13 14  2  0
 14  9  1  0
  1 15  1  0
  1 16  1  0
  1 17  1  0
  2 18  1  0
  3 19  1  0
  4 20  1  0
  4 21  1  0
  5 22  1  1
  6 23  1  0
  6 24  1  0
  7 25  1  0
  7 26  1  0
  8 27  1  0
  8 28  1  0
 10 29  1  0
 11 30  1  0
 12 31  1  0
 13 32  1  0
 14 33  1  0
M  END
