
     RDKit          3D

 38 37  0  0  0  0  0  0  0  0999 V2000
   -0.7712    2.2238   -4.6511 C   0  0  0  0  0  0  0  0  0  0  0  0
    0.2250    1.6426   -3.6600 C   0  0  0  0  0  0  0  0  0  0  0  0
    0.3563    2.4629   -2.3748 C   0  0  0  0  0  0  0  0  0  0  0  0
   -0.9273    2.6152   -1.5518 C   0  0  0  0  0  0  0  0  0  0  0  0
   -1.6056    1.3089   -1.1278 C   0  0  0  0  0  0  0  0  0  0  0  0
   -0.7148    0.4163   -0.2585 C   0  0  0  0  0  0  0  0  0  0  0  0
   -1.4700   -0.8274    0.2156 C   0  0  0  0  0  0  0  0  0  0  0  0
   -0.7194   -1.6754    1.2633 C   0  0  1  0  0  0  0  0  0  0  0  0
   -1.6366   -2.7576    1.6649 N   0  0  0  0  0  0  0  0  0  0  0  0
    0.6161   -2.2765    0.7599 C   0  0  0  0  0  0  0  0  0  0  0  0
    1.8146   -1.3996    1.0191 C   0  0  0  0  0  0  0  0  0  0  0  0
    2.8019   -1.7169    1.8719 C   0  0  0  0  0  0  0  0  0  0  0  0
    3.9963   -0.8546    2.1238 C   0  0  0  0  0  0  0  0  0  0  0  0
   -0.7515    1.6504   -5.5834 H   0  0  0  0  0  0  0  0  0  0  0  0
   -0.5277    3.2642   -4.8885 H   0  0  0  0  0  0  0  0  0  0  0  0
   -1.7927    2.1873   -4.2614 H   0  0  0  0  0  0  0  0  0  0  0  0
    1.2093    1.5988   -4.1420 H   0  0  0  0  0  0  0  0  0  0  0  0
   -0.0503    0.6082   -3.4277 H   0  0  0  0  0  0  0  0  0  0  0  0
    0.7194    3.4662   -2.6316 H   0  0  0  0  0  0  0  0  0  0  0  0
    1.1379    2.0135   -1.7508 H   0  0  0  0  0  0  0  0  0  0  0  0
   -0.6905    3.1978   -0.6525 H   0  0  0  0  0  0  0  0  0  0  0  0
   -1.6504    3.2164   -2.1159 H   0  0  0  0  0  0  0  0  0  0  0  0
   -1.9397    0.7530   -2.0113 H   0  0  0  0  0  0  0  0  0  0  0  0
   -2.5123    1.5668   -0.5660 H   0  0  0  0  0  0  0  0  0  0  0  0
    0.1562    0.1063   -0.8426 H   0  0  0  0  0  0  0  0  0  0  0  0
   -0.3580    0.9868    0.6068 H   0  0  0  0  0  0  0  0  0  0  0  0
   -1.7178   -1.4453   -0.6582 H   0  0  0  0  0  0  0  0  0  0  0  0
   -2.4276   -0.5073    0.6492 H   0  0  0  0  0  0  0  0  0  0  0  0
   -0.5391   -1.0599    2.1533 H   0  0  0  0  0  0  0  0  0  0  0  0
   -1.7885   -3.3886    0.8787 H   0  0  0  0  0  0  0  0  0  0  0  0
   -1.1982   -3.3165    2.3965 H   0  0  0  0  0  0  0  0  0  0  0  0
    0.5563   -2.4935   -0.3138 H   0  0  0  0  0  0  0  0  0  0  0  0
    0.7900   -3.2449    1.2491 H   0  0  0  0  0  0  0  0  0  0  0  0
    1.8793   -0.4672    0.4651 H   0  0  0  0  0  0  0  0  0  0  0  0
    2.7595   -2.6495    2.4305 H   0  0  0  0  0  0  0  0  0  0  0  0
    3.9746    0.0665    1.5329 H   0  0  0  0  0  0  0  0  0  0  0  0
    4.0407   -0.5803    3.1822 H   0  0  0  0  0  0  0  0  0  0  0  0
    4.9099   -1.4011    1.8709 H   0  0  0  0  0  0  0  0  0  0  0  0
  1  2  1  0
  2  3  1  0
  3  4  1  0
  4  5  1  0
  5  6  1  0
  6  7  1  0
  7  8  1  0
  8  9  1  0
  8 10  1  0
 10 11  1  0
 11 12  2  0
 12 13  1  0
  1 14  1  0
  1 15  1  0
  1 16  1  0
  2 17  1  0
  2 18  1  0
  3 19  1  0
  3 20  1  0
  4 21  1  0
  4 22  1  0
  5 23  1  0
  5 24  1  0
  6 25  1  0
  6 26  1  0
  7 27  1  0
  7 28  1  0
  8 29  1  1
  9 30  1  0
  9 31  1  0
 10 32  1  0
 10 33  1  0
 11 34  1  0
 12 35  1  0
 13 36  1  0
 13 37  1  0
 13 38  1  0
M  END
