
     RDKit          3D

 32 31  0  0  0  0  0  0  0  0999 V2000
    2.0352   -1.2635   -3.2974 C   0  0  0  0  0  0  0  0  0  0  0  0
    1.4880    0.1405   -3.2499 C   0  0  0  0  0  0  0  0  0  0  0  0
    1.2575    0.7656   -4.2879 O   0  0  0  0  0  0  0  0  0  0  0  0
    1.2103    0.7367   -1.8589 C   0  0  1  0  0  0  0  0  0  0  0  0
    1.0399    2.2031   -1.9827 N   0  0  0  0  0  0  0  0  0  0  0  0
   -0.0345    0.0734   -1.2417 C   0  0  0  0  0  0  0  0  0  0  0  0
   -0.2759    0.4972    0.1850 C   0  0  0  0  0  0  0  0  0  0  0  0
   -0.2764   -0.2812    1.2793 C   0  0  0  0  0  0  0  0  0  0  0  0
   -0.0562   -1.7696    1.3355 C   0  0  0  0  0  0  0  0  0  0  0  0
    1.4292   -2.1465    1.4572 C   0  0  2  0  0  0  0  0  0  0  0  0
    1.6325   -3.6066    1.3680 N   0  0  0  0  0  0  0  0  0  0  0  0
    1.9909   -1.6725    2.8041 C   0  0  0  0  0  0  0  0  0  0  0  0
    3.0921   -0.6468    2.7581 C   0  0  0  0  0  0  0  0  0  0  0  0
    1.5716   -2.1190    3.8748 O   0  0  0  0  0  0  0  0  0  0  0  0
    1.2305   -1.9810   -3.1228 H   0  0  0  0  0  0  0  0  0  0  0  0
    2.4760   -1.4497   -4.2809 H   0  0  0  0  0  0  0  0  0  0  0  0
    2.8175   -1.3846   -2.5435 H   0  0  0  0  0  0  0  0  0  0  0  0
    2.0929    0.5555   -1.2344 H   0  0  0  0  0  0  0  0  0  0  0  0
    0.2971    2.3690   -2.6691 H   0  0  0  0  0  0  0  0  0  0  0  0
    1.8692    2.5843   -2.4432 H   0  0  0  0  0  0  0  0  0  0  0  0
    0.0644   -1.0145   -1.3067 H   0  0  0  0  0  0  0  0  0  0  0  0
   -0.9252    0.3223   -1.8334 H   0  0  0  0  0  0  0  0  0  0  0  0
   -0.4661    1.5636    0.3204 H   0  0  0  0  0  0  0  0  0  0  0  0
   -0.4665    0.1975    2.2413 H   0  0  0  0  0  0  0  0  0  0  0  0
   -0.4917   -2.2413    0.4461 H   0  0  0  0  0  0  0  0  0  0  0  0
   -0.6261   -2.1660    2.1862 H   0  0  0  0  0  0  0  0  0  0  0  0
    2.0028   -1.6821    0.6471 H   0  0  0  0  0  0  0  0  0  0  0  0
    1.0209   -3.9999    0.6547 H   0  0  0  0  0  0  0  0  0  0  0  0
    1.3190   -4.0198    2.2529 H   0  0  0  0  0  0  0  0  0  0  0  0
    2.7455    0.2434    2.2276 H   0  0  0  0  0  0  0  0  0  0  0  0
    3.3721   -0.3612    3.7762 H   0  0  0  0  0  0  0  0  0  0  0  0
    3.9648   -1.0706    2.2547 H   0  0  0  0  0  0  0  0  0  0  0  0
  1  2  1  0
  2  3  2  0
  2  4  1  0
  4  5  1  0
  4  6  1  0
  6  7  1  0
  7  8  2  3
  8  9  1  0
  9 10  1  0
 10 11  1  0
 10 12  1  0
 12 13  1  0
 12 14  2  0
  1 15  1  0
  1 16  1  0
  1 17  1  0
  4 18  1  1
  5 19  1  0
  5 20  1  0
  6 21  1  0
  6 22  1  0
  7 23  1  0
  8 24  1  0
  9 25  1  0
  9 26  1  0
 10 27  1  6
 11 28  1  0
 11 29  1  0
 13 30  1  0
 13 31  1  0
 13 32  1  0
M  END
