
     RDKit          3D

 19 18  0  0  0  0  0  0  0  0999 V2000
   -0.6810   -1.2261   -2.0849 C   0  0  0  0  0  0  0  0  0  0  0  0
    0.2682   -0.0699   -1.8388 C   0  0  0  0  0  0  0  0  0  0  0  0
    0.4769    0.1816   -0.3553 C   0  0  0  0  0  0  0  0  0  0  0  0
    1.5693   -0.0748    0.1601 O   0  0  0  0  0  0  0  0  0  0  0  0
   -0.7193    0.6690    0.4825 C   0  0  2  0  0  0  0  0  0  0  0  0
   -1.4016    1.7872   -0.2023 N   0  0  0  0  0  0  0  0  0  0  0  0
   -0.2388    1.0807    1.8876 C   0  0  0  0  0  0  0  0  0  0  0  0
   -1.6308    1.5712    2.9695 S   0  0  0  0  0  0  0  0  0  0  0  0
   -1.6918   -0.9940   -1.7354 H   0  0  0  0  0  0  0  0  0  0  0  0
   -0.3459   -2.1276   -1.5614 H   0  0  0  0  0  0  0  0  0  0  0  0
   -0.7378   -1.4505   -3.1545 H   0  0  0  0  0  0  0  0  0  0  0  0
    1.2443   -0.2998   -2.2820 H   0  0  0  0  0  0  0  0  0  0  0  0
   -0.0864    0.8446   -2.3232 H   0  0  0  0  0  0  0  0  0  0  0  0
   -1.4151   -0.1735    0.5762 H   0  0  0  0  0  0  0  0  0  0  0  0
   -2.0325    1.4259   -0.9166 H   0  0  0  0  0  0  0  0  0  0  0  0
   -1.9983    2.2647    0.4793 H   0  0  0  0  0  0  0  0  0  0  0  0
    0.2844    0.2525    2.3775 H   0  0  0  0  0  0  0  0  0  0  0  0
    0.4604    1.9225    1.8273 H   0  0  0  0  0  0  0  0  0  0  0  0
   -2.1682    0.3487    3.0929 H   0  0  0  0  0  0  0  0  0  0  0  0
  1  2  1  0
  2  3  1  0
  3  4  2  0
  3  5  1  0
  5  6  1  0
  5  7  1  0
  7  8  1  0
  1  9  1  0
  1 10  1  0
  1 11  1  0
  2 12  1  0
  2 13  1  0
  5 14  1  1
  6 15  1  0
  6 16  1  0
  7 17  1  0
  7 18  1  0
  8 19  1  0
M  END
