
     RDKit          3D

 28 28  0  0  0  0  0  0  0  0999 V2000
   -2.9186    1.4529   -3.2706 C   0  0  0  0  0  0  0  0  0  0  0  0
   -1.8784    1.0920   -2.2508 C   0  0  0  0  0  0  0  0  0  0  0  0
   -1.9359    1.6299   -0.9602 C   0  0  0  0  0  0  0  0  0  0  0  0
   -0.9520    1.3165   -0.0196 C   0  0  0  0  0  0  0  0  0  0  0  0
    0.1060    0.4670   -0.3621 C   0  0  0  0  0  0  0  0  0  0  0  0
    0.1792   -0.0582   -1.6564 C   0  0  0  0  0  0  0  0  0  0  0  0
   -0.8079    0.2578   -2.5950 C   0  0  0  0  0  0  0  0  0  0  0  0
    1.1303    0.1685    0.6678 C   0  0  0  0  0  0  0  0  0  0  0  0
    1.1646    0.7236    1.7577 O   0  0  0  0  0  0  0  0  0  0  0  0
    2.2153   -0.8046    0.4235 C   0  0  0  0  0  0  0  0  0  0  0  0
    1.8394   -2.0631    0.4088 N   0  0  0  0  0  4  0  0  0  0  0  0
    1.5032   -3.1521    0.3895 N   0  0  0  0  0  2  0  0  0  0  0  0
    3.6222   -0.3416    0.2517 C   0  0  2  0  0  0  0  0  0  0  0  0
    3.7982   -0.0839   -1.2011 N   0  0  0  0  0  0  0  0  0  0  0  0
    4.6270   -1.3151    0.9183 C   0  0  0  0  0  0  0  0  0  0  0  0
    4.6406   -2.5252    0.3214 F   0  0  0  0  0  0  0  0  0  0  0  0
    4.3474   -1.4940    2.2267 F   0  0  0  0  0  0  0  0  0  0  0  0
    5.8823   -0.8096    0.8354 F   0  0  0  0  0  0  0  0  0  0  0  0
   -2.6121    2.3510   -3.8155 H   0  0  0  0  0  0  0  0  0  0  0  0
   -3.0638    0.6365   -3.9858 H   0  0  0  0  0  0  0  0  0  0  0  0
   -3.8856    1.6411   -2.7924 H   0  0  0  0  0  0  0  0  0  0  0  0
   -2.7491    2.2952   -0.6768 H   0  0  0  0  0  0  0  0  0  0  0  0
   -1.0173    1.7396    0.9815 H   0  0  0  0  0  0  0  0  0  0  0  0
    0.9926   -0.7091   -1.9664 H   0  0  0  0  0  0  0  0  0  0  0  0
   -0.7368   -0.1545   -3.6000 H   0  0  0  0  0  0  0  0  0  0  0  0
    3.7335    0.6192    0.7687 H   0  0  0  0  0  0  0  0  0  0  0  0
    4.7997    0.0028   -1.3990 H   0  0  0  0  0  0  0  0  0  0  0  0
    3.3998    0.8273   -1.4357 H   0  0  0  0  0  0  0  0  0  0  0  0
  1  2  1  0
  2  3  2  0
  3  4  1  0
  4  5  2  0
  5  6  1  0
  6  7  2  0
  5  8  1  0
  8  9  2  0
  8 10  1  0
 10 11  2  0
 11 12  2  0
 10 13  1  0
 13 14  1  0
 13 15  1  0
 15 16  1  0
 15 17  1  0
 15 18  1  0
  7  2  1  0
  1 19  1  0
  1 20  1  0
  1 21  1  0
  3 22  1  0
  4 23  1  0
  6 24  1  0
  7 25  1  0
 13 26  1  1
 14 27  1  0
 14 28  1  0
M  CHG  2  11   1  12  -1
M  END
