
     RDKit          3D

 35 36  0  0  0  0  0  0  0  0999 V2000
   -3.0934   -0.4158    2.0625 N   0  0  0  0  0  0  0  0  0  0  0  0
   -3.1460    1.0692    2.0631 C   0  0  1  0  0  0  0  0  0  0  0  0
   -2.5623    1.5047    0.7618 C   0  0  0  0  0  0  0  0  0  0  0  0
   -3.2605    1.7352   -0.3265 N   0  0  0  0  0  4  0  0  0  0  0  0
   -3.8566    1.9295   -1.2785 N   0  0  0  0  0  2  0  0  0  0  0  0
   -1.1097    1.7443    0.6338 C   0  0  0  0  0  0  0  0  0  0  0  0
   -0.6859    2.7174    1.2423 O   0  0  0  0  0  0  0  0  0  0  0  0
   -0.2370    0.8364   -0.1492 C   0  0  0  0  0  0  0  0  0  0  0  0
   -0.7093   -0.3597   -0.6961 C   0  0  0  0  0  0  0  0  0  0  0  0
    0.1567   -1.1858   -1.4227 C   0  0  0  0  0  0  0  0  0  0  0  0
    1.5050   -0.8405   -1.6150 C   0  0  0  0  0  0  0  0  0  0  0  0
    1.9628    0.3624   -1.0540 C   0  0  0  0  0  0  0  0  0  0  0  0
    1.1033    1.1930   -0.3277 C   0  0  0  0  0  0  0  0  0  0  0  0
    2.4097   -1.7140   -2.3804 C   0  0  0  0  0  0  0  0  0  0  0  0
    3.6286   -2.1507   -1.8346 C   0  0  0  0  0  0  0  0  0  0  0  0
    4.4874   -2.9808   -2.5604 C   0  0  0  0  0  0  0  0  0  0  0  0
    4.1419   -3.3878   -3.8464 C   0  0  0  0  0  0  0  0  0  0  0  0
    2.9392   -2.9660   -4.4068 C   0  0  0  0  0  0  0  0  0  0  0  0
    2.0809   -2.1367   -3.6794 C   0  0  0  0  0  0  0  0  0  0  0  0
   -4.5291    1.7222    2.3137 C   0  0  0  0  0  0  0  0  0  0  0  0
   -4.4564    3.0689    2.2584 F   0  0  0  0  0  0  0  0  0  0  0  0
   -5.4569    1.3136    1.4232 F   0  0  0  0  0  0  0  0  0  0  0  0
   -4.9791    1.3886    3.5482 F   0  0  0  0  0  0  0  0  0  0  0  0
   -2.1525   -0.7231    2.3163 H   0  0  0  0  0  0  0  0  0  0  0  0
   -3.6994   -0.7649    2.8113 H   0  0  0  0  0  0  0  0  0  0  0  0
   -2.4889    1.4185    2.8687 H   0  0  0  0  0  0  0  0  0  0  0  0
   -1.7399   -0.6815   -0.5704 H   0  0  0  0  0  0  0  0  0  0  0  0
   -0.2289   -2.1182   -1.8331 H   0  0  0  0  0  0  0  0  0  0  0  0
    2.9983    0.6702   -1.1914 H   0  0  0  0  0  0  0  0  0  0  0  0
    1.4880    2.1214    0.0913 H   0  0  0  0  0  0  0  0  0  0  0  0
    3.9149   -1.8539   -0.8276 H   0  0  0  0  0  0  0  0  0  0  0  0
    5.4247   -3.3100   -2.1192 H   0  0  0  0  0  0  0  0  0  0  0  0
    4.8098   -4.0326   -4.4117 H   0  0  0  0  0  0  0  0  0  0  0  0
    2.6682   -3.2785   -5.4119 H   0  0  0  0  0  0  0  0  0  0  0  0
    1.1521   -1.8097   -4.1427 H   0  0  0  0  0  0  0  0  0  0  0  0
  1  2  1  0
  2  3  1  0
  3  4  2  0
  4  5  2  0
  3  6  1  0
  6  7  2  0
  6  8  1  0
  8  9  2  0
  9 10  1  0
 10 11  2  0
 11 12  1  0
 12 13  2  0
 11 14  1  0
 14 15  2  0
 15 16  1  0
 16 17  2  0
 17 18  1  0
 18 19  2  0
  2 20  1  0
 20 21  1  0
 20 22  1  0
 20 23  1  0
 13  8  1  0
 19 14  1  0
  1 24  1  0
  1 25  1  0
  2 26  1  1
  9 27  1  0
 10 28  1  0
 12 29  1  0
 13 30  1  0
 15 31  1  0
 16 32  1  0
 17 33  1  0
 18 34  1  0
 19 35  1  0
M  CHG  2   4   1   5  -1
M  END
