
     RDKit          3D

 25 25  0  0  0  0  0  0  0  0999 V2000
   -0.7151   -1.7733    2.2474 N   0  0  0  0  0  0  0  0  0  0  0  0
    0.3501   -1.4907    1.2555 C   0  0  1  0  0  0  0  0  0  0  0  0
   -0.0158   -0.2531    0.5017 C   0  0  0  0  0  0  0  0  0  0  0  0
   -0.7947    0.7027    0.9558 N   0  0  0  0  0  4  0  0  0  0  0  0
   -1.4541    1.5534    1.3329 N   0  0  0  0  0  2  0  0  0  0  0  0
    0.5336   -0.0221   -0.8553 C   0  0  0  0  0  0  0  0  0  0  0  0
    0.2114   -0.8565   -1.6909 O   0  0  0  0  0  0  0  0  0  0  0  0
    1.4296    1.1195   -1.1700 C   0  0  0  0  0  0  0  0  0  0  0  0
    1.9679    1.9474   -0.1749 C   0  0  0  0  0  0  0  0  0  0  0  0
    2.8115    3.0043   -0.5301 C   0  0  0  0  0  0  0  0  0  0  0  0
    3.1156    3.2269   -1.8687 C   0  0  0  0  0  0  0  0  0  0  0  0
    3.9247    4.2402   -2.2015 F   0  0  0  0  0  0  0  0  0  0  0  0
    2.5942    2.4107   -2.8648 C   0  0  0  0  0  0  0  0  0  0  0  0
    1.7512    1.3536   -2.5161 C   0  0  0  0  0  0  0  0  0  0  0  0
    1.7838   -1.3231    1.8118 C   0  0  0  0  0  0  0  0  0  0  0  0
    1.8999   -0.2125    2.5733 F   0  0  0  0  0  0  0  0  0  0  0  0
    2.6854   -1.2227    0.8094 F   0  0  0  0  0  0  0  0  0  0  0  0
    2.1339   -2.3872    2.5696 F   0  0  0  0  0  0  0  0  0  0  0  0
   -1.5549   -2.1000    1.7654 H   0  0  0  0  0  0  0  0  0  0  0  0
   -0.4189   -2.5489    2.8457 H   0  0  0  0  0  0  0  0  0  0  0  0
    0.3632   -2.3336    0.5548 H   0  0  0  0  0  0  0  0  0  0  0  0
    1.7594    1.7942    0.8803 H   0  0  0  0  0  0  0  0  0  0  0  0
    3.2360    3.6545    0.2296 H   0  0  0  0  0  0  0  0  0  0  0  0
    2.8469    2.6000   -3.9035 H   0  0  0  0  0  0  0  0  0  0  0  0
    1.3464    0.7143   -3.2993 H   0  0  0  0  0  0  0  0  0  0  0  0
  1  2  1  0
  2  3  1  0
  3  4  2  0
  4  5  2  0
  3  6  1  0
  6  7  2  0
  6  8  1  0
  8  9  2  0
  9 10  1  0
 10 11  2  0
 11 12  1  0
 11 13  1  0
 13 14  2  0
  2 15  1  0
 15 16  1  0
 15 17  1  0
 15 18  1  0
 14  8  1  0
  1 19  1  0
  1 20  1  0
  2 21  1  6
  9 22  1  0
 10 23  1  0
 13 24  1  0
 14 25  1  0
M  CHG  2   4   1   5  -1
M  END
