
     RDKit          3D

 25 25  0  0  0  0  0  0  0  0999 V2000
   -1.6903    1.2337    0.0625 N   0  0  0  0  0  0  0  0  0  0  0  0
   -0.8767    1.6199   -1.1200 C   0  0  1  0  0  0  0  0  0  0  0  0
    0.2910    0.6916   -1.1381 C   0  0  0  0  0  0  0  0  0  0  0  0
    0.3647   -0.3981   -1.8677 N   0  0  0  0  0  4  0  0  0  0  0  0
    0.4353   -1.3509   -2.4892 N   0  0  0  0  0  2  0  0  0  0  0  0
    1.4929    0.9791   -0.3270 C   0  0  0  0  0  0  0  0  0  0  0  0
    2.1483    1.9472   -0.6874 O   0  0  0  0  0  0  0  0  0  0  0  0
    1.8478    0.1614    0.8590 C   0  0  0  0  0  0  0  0  0  0  0  0
    3.0756    0.4046    1.4901 C   0  0  0  0  0  0  0  0  0  0  0  0
    3.4495   -0.3378    2.6135 C   0  0  0  0  0  0  0  0  0  0  0  0
    2.5953   -1.3210    3.1081 C   0  0  0  0  0  0  0  0  0  0  0  0
    3.0523   -2.2340    4.4918 Cl  0  0  0  0  0  0  0  0  0  0  0  0
    1.3699   -1.5667    2.4897 C   0  0  0  0  0  0  0  0  0  0  0  0
    0.9924   -0.8254    1.3649 C   0  0  0  0  0  0  0  0  0  0  0  0
   -1.6048    1.6561   -2.4878 C   0  0  0  0  0  0  0  0  0  0  0  0
   -2.5930    2.5834   -2.4595 F   0  0  0  0  0  0  0  0  0  0  0  0
   -2.1728    0.4713   -2.7951 F   0  0  0  0  0  0  0  0  0  0  0  0
   -0.7610    1.9915   -3.4864 F   0  0  0  0  0  0  0  0  0  0  0  0
   -1.2931    1.6616    0.9014 H   0  0  0  0  0  0  0  0  0  0  0  0
   -2.6215    1.6514   -0.0315 H   0  0  0  0  0  0  0  0  0  0  0  0
   -0.5031    2.6356   -0.9421 H   0  0  0  0  0  0  0  0  0  0  0  0
    3.7489    1.1714    1.1091 H   0  0  0  0  0  0  0  0  0  0  0  0
    4.4051   -0.1439    3.0946 H   0  0  0  0  0  0  0  0  0  0  0  0
    0.7033   -2.3332    2.8784 H   0  0  0  0  0  0  0  0  0  0  0  0
    0.0266   -1.0347    0.9110 H   0  0  0  0  0  0  0  0  0  0  0  0
  1  2  1  0
  2  3  1  0
  3  4  2  0
  4  5  2  0
  3  6  1  0
  6  7  2  0
  6  8  1  0
  8  9  2  0
  9 10  1  0
 10 11  2  0
 11 12  1  0
 11 13  1  0
 13 14  2  0
  2 15  1  0
 15 16  1  0
 15 17  1  0
 15 18  1  0
 14  8  1  0
  1 19  1  0
  1 20  1  0
  2 21  1  1
  9 22  1  0
 10 23  1  0
 13 24  1  0
 14 25  1  0
M  CHG  2   4   1   5  -1
M  END
