
     RDKit          3D

 25 25  0  0  0  0  0  0  0  0999 V2000
    0.4184    1.7624   -2.2495 N   0  0  0  0  0  0  0  0  0  0  0  0
    0.4631    0.3421   -2.6902 C   0  0  1  0  0  0  0  0  0  0  0  0
    0.9747   -0.4349   -1.5233 C   0  0  0  0  0  0  0  0  0  0  0  0
    2.2554   -0.5355   -1.2533 N   0  0  0  0  0  4  0  0  0  0  0  0
    3.3708   -0.5962   -1.0260 N   0  0  0  0  0  2  0  0  0  0  0  0
    0.0911   -1.1941   -0.6107 C   0  0  0  0  0  0  0  0  0  0  0  0
   -0.1676   -2.3340   -0.9706 O   0  0  0  0  0  0  0  0  0  0  0  0
   -0.4273   -0.6059    0.6475 C   0  0  0  0  0  0  0  0  0  0  0  0
   -0.0832    0.6851    1.0640 C   0  0  0  0  0  0  0  0  0  0  0  0
   -0.5967    1.1936    2.2617 C   0  0  0  0  0  0  0  0  0  0  0  0
   -1.4505    0.4129    3.0402 C   0  0  0  0  0  0  0  0  0  0  0  0
   -2.1412    1.1058    4.6571 Br  0  0  0  0  0  0  0  0  0  0  0  0
   -1.7978   -0.8736    2.6341 C   0  0  0  0  0  0  0  0  0  0  0  0
   -1.2859   -1.3826    1.4379 C   0  0  0  0  0  0  0  0  0  0  0  0
   -0.8500   -0.2423   -3.2730 C   0  0  0  0  0  0  0  0  0  0  0  0
   -0.6714   -1.4909   -3.7482 F   0  0  0  0  0  0  0  0  0  0  0  0
   -1.2586    0.5269   -4.3154 F   0  0  0  0  0  0  0  0  0  0  0  0
   -1.8532   -0.2555   -2.3715 F   0  0  0  0  0  0  0  0  0  0  0  0
   -0.1275    2.2980   -2.9323 H   0  0  0  0  0  0  0  0  0  0  0  0
    1.3589    2.1612   -2.2875 H   0  0  0  0  0  0  0  0  0  0  0  0
    1.2133    0.2846   -3.4890 H   0  0  0  0  0  0  0  0  0  0  0  0
    0.5769    1.3179    0.4781 H   0  0  0  0  0  0  0  0  0  0  0  0
   -0.3263    2.1988    2.5765 H   0  0  0  0  0  0  0  0  0  0  0  0
   -2.4638   -1.4868    3.2360 H   0  0  0  0  0  0  0  0  0  0  0  0
   -1.5625   -2.3884    1.1246 H   0  0  0  0  0  0  0  0  0  0  0  0
  1  2  1  0
  2  3  1  0
  3  4  2  0
  4  5  2  0
  3  6  1  0
  6  7  2  0
  6  8  1  0
  8  9  2  0
  9 10  1  0
 10 11  2  0
 11 12  1  0
 11 13  1  0
 13 14  2  0
  2 15  1  0
 15 16  1  0
 15 17  1  0
 15 18  1  0
 14  8  1  0
  1 19  1  0
  1 20  1  0
  2 21  1  6
  9 22  1  0
 10 23  1  0
 13 24  1  0
 14 25  1  0
M  CHG  2   4   1   5  -1
M  END
