
     RDKit          3D

 28 28  0  0  0  0  0  0  0  0999 V2000
    0.2844   -4.3754   -2.0062 N   0  0  0  0  0  0  0  0  0  0  0  0
    0.1660   -2.9387   -2.3695 C   0  0  1  0  0  0  0  0  0  0  0  0
   -0.6377   -2.2380   -1.3193 C   0  0  0  0  0  0  0  0  0  0  0  0
   -0.8705   -2.7018   -0.1127 N   0  0  0  0  0  4  0  0  0  0  0  0
   -1.0485   -3.0767    0.9496 N   0  0  0  0  0  2  0  0  0  0  0  0
   -1.2411   -0.9126   -1.6057 C   0  0  0  0  0  0  0  0  0  0  0  0
   -2.0364   -0.8910   -2.5353 O   0  0  0  0  0  0  0  0  0  0  0  0
   -0.8807    0.3064   -0.8383 C   0  0  0  0  0  0  0  0  0  0  0  0
    0.2020    0.3420    0.0471 C   0  0  0  0  0  0  0  0  0  0  0  0
    0.5010    1.5208    0.7396 C   0  0  0  0  0  0  0  0  0  0  0  0
   -0.2752    2.6766    0.5604 C   0  0  0  0  0  0  0  0  0  0  0  0
   -1.3484    2.6365   -0.3414 C   0  0  0  0  0  0  0  0  0  0  0  0
   -1.6491    1.4606   -1.0343 C   0  0  0  0  0  0  0  0  0  0  0  0
    0.0665    3.9534    1.2928 C   0  0  0  0  0  0  0  0  0  0  0  0
   -1.0184    4.7430    1.5253 F   0  0  0  0  0  0  0  0  0  0  0  0
    0.6335    3.7318    2.5113 F   0  0  0  0  0  0  0  0  0  0  0  0
    0.9510    4.7230    0.6019 F   0  0  0  0  0  0  0  0  0  0  0  0
    1.4961   -2.1795   -2.5773 C   0  0  0  0  0  0  0  0  0  0  0  0
    1.2976   -0.9132   -2.9956 F   0  0  0  0  0  0  0  0  0  0  0  0
    2.1976   -2.1246   -1.4198 F   0  0  0  0  0  0  0  0  0  0  0  0
    2.2697   -2.8038   -3.4933 F   0  0  0  0  0  0  0  0  0  0  0  0
    0.9547   -4.4876   -1.2407 H   0  0  0  0  0  0  0  0  0  0  0  0
    0.7073   -4.8763   -2.7926 H   0  0  0  0  0  0  0  0  0  0  0  0
   -0.4026   -2.8961   -3.3055 H   0  0  0  0  0  0  0  0  0  0  0  0
    0.8385   -0.5228    0.2138 H   0  0  0  0  0  0  0  0  0  0  0  0
    1.3493    1.5353    1.4244 H   0  0  0  0  0  0  0  0  0  0  0  0
   -1.9583    3.5239   -0.5095 H   0  0  0  0  0  0  0  0  0  0  0  0
   -2.4879    1.4516   -1.7296 H   0  0  0  0  0  0  0  0  0  0  0  0
  1  2  1  0
  2  3  1  0
  3  4  2  0
  4  5  2  0
  3  6  1  0
  6  7  2  0
  6  8  1  0
  8  9  2  0
  9 10  1  0
 10 11  2  0
 11 12  1  0
 12 13  2  0
 11 14  1  0
 14 15  1  0
 14 16  1  0
 14 17  1  0
  2 18  1  0
 18 19  1  0
 18 20  1  0
 18 21  1  0
 13  8  1  0
  1 22  1  0
  1 23  1  0
  2 24  1  6
  9 25  1  0
 10 26  1  0
 12 27  1  0
 13 28  1  0
M  CHG  2   4   1   5  -1
M  END
