
     RDKit          3D

 26 26  0  0  0  0  0  0  0  0999 V2000
   -2.3777    0.6855    3.2627 N   0  0  0  0  0  0  0  0  0  0  0  0
   -1.3719    1.2909    2.3574 C   0  0  1  0  0  0  0  0  0  0  0  0
   -0.2790    0.2979    2.1252 C   0  0  0  0  0  0  0  0  0  0  0  0
   -0.4071   -1.0047    2.2389 N   0  0  0  0  0  4  0  0  0  0  0  0
   -0.4945   -2.1394    2.3130 N   0  0  0  0  0  2  0  0  0  0  0  0
    1.0661    0.7600    1.7078 C   0  0  0  0  0  0  0  0  0  0  0  0
    1.6361    1.4848    2.5125 O   0  0  0  0  0  0  0  0  0  0  0  0
    1.6653    0.3940    0.3992 C   0  0  0  0  0  0  0  0  0  0  0  0
    0.9368   -0.2535   -0.6059 C   0  0  0  0  0  0  0  0  0  0  0  0
    1.5516   -0.5685   -1.8240 C   0  0  0  0  0  0  0  0  0  0  0  0
    2.8925   -0.2368   -2.0474 C   0  0  0  0  0  0  0  0  0  0  0  0
    3.6186    0.4151   -1.0464 C   0  0  0  0  0  0  0  0  0  0  0  0
    3.0067    0.7307    0.1707 C   0  0  0  0  0  0  0  0  0  0  0  0
    3.5172   -0.5606   -3.2970 C   0  0  0  0  0  0  0  0  0  0  0  0
    4.0217   -0.8227   -4.3085 N   0  0  0  0  0  0  0  0  0  0  0  0
   -1.8885    1.7842    0.9850 C   0  0  0  0  0  0  0  0  0  0  0  0
   -0.9224    2.4493    0.3123 F   0  0  0  0  0  0  0  0  0  0  0  0
   -2.9339    2.6281    1.1378 F   0  0  0  0  0  0  0  0  0  0  0  0
   -2.2911    0.7578    0.2030 F   0  0  0  0  0  0  0  0  0  0  0  0
   -1.9953    0.6218    4.2082 H   0  0  0  0  0  0  0  0  0  0  0  0
   -3.1858    1.3097    3.3321 H   0  0  0  0  0  0  0  0  0  0  0  0
   -0.9500    2.1554    2.8831 H   0  0  0  0  0  0  0  0  0  0  0  0
   -0.1095   -0.5197   -0.4796 H   0  0  0  0  0  0  0  0  0  0  0  0
    0.9738   -1.0727   -2.5981 H   0  0  0  0  0  0  0  0  0  0  0  0
    4.6621    0.6833   -1.2048 H   0  0  0  0  0  0  0  0  0  0  0  0
    3.5848    1.2413    0.9404 H   0  0  0  0  0  0  0  0  0  0  0  0
  1  2  1  0
  2  3  1  0
  3  4  2  0
  4  5  2  0
  3  6  1  0
  6  7  2  0
  6  8  1  0
  8  9  2  0
  9 10  1  0
 10 11  2  0
 11 12  1  0
 12 13  2  0
 11 14  1  0
 14 15  3  0
  2 16  1  0
 16 17  1  0
 16 18  1  0
 16 19  1  0
 13  8  1  0
  1 20  1  0
  1 21  1  0
  2 22  1  1
  9 23  1  0
 10 24  1  0
 12 25  1  0
 13 26  1  0
M  CHG  2   4   1   5  -1
M  END
