
     RDKit          3D

 25 25  0  0  0  0  0  0  0  0999 V2000
    2.6470    3.2933    1.6168 N   0  0  0  0  0  0  0  0  0  0  0  0
    2.2004    2.9564    0.2470 C   0  0  1  0  0  0  0  0  0  0  0  0
    1.8681    1.4978    0.2203 C   0  0  0  0  0  0  0  0  0  0  0  0
    2.6245    0.6193   -0.3951 N   0  0  0  0  0  4  0  0  0  0  0  0
    3.2717   -0.1373   -0.9489 N   0  0  0  0  0  2  0  0  0  0  0  0
    0.6913    0.9374    0.9299 C   0  0  0  0  0  0  0  0  0  0  0  0
    0.7269    1.0282    2.1497 O   0  0  0  0  0  0  0  0  0  0  0  0
   -0.4528    0.3228    0.2111 C   0  0  0  0  0  0  0  0  0  0  0  0
   -1.4636   -0.2790    0.9737 C   0  0  0  0  0  0  0  0  0  0  0  0
   -2.5666   -0.8699    0.3485 C   0  0  0  0  0  0  0  0  0  0  0  0
   -3.7683   -1.5950    1.3554 Cl  0  0  0  0  0  0  0  0  0  0  0  0
   -2.6656   -0.8592   -1.0465 C   0  0  0  0  0  0  0  0  0  0  0  0
   -3.9953   -1.5680   -1.8894 Cl  0  0  0  0  0  0  0  0  0  0  0  0
   -1.6600   -0.2552   -1.8077 C   0  0  0  0  0  0  0  0  0  0  0  0
   -0.5558    0.3358   -1.1838 C   0  0  0  0  0  0  0  0  0  0  0  0
    1.0091    3.7627   -0.3249 C   0  0  0  0  0  0  0  0  0  0  0  0
    0.6815    3.2928   -1.5547 F   0  0  0  0  0  0  0  0  0  0  0  0
   -0.0922    3.6534    0.4497 F   0  0  0  0  0  0  0  0  0  0  0  0
    1.3020    5.0723   -0.4599 F   0  0  0  0  0  0  0  0  0  0  0  0
    3.4203    2.6921    1.9030 H   0  0  0  0  0  0  0  0  0  0  0  0
    1.8898    3.0945    2.2822 H   0  0  0  0  0  0  0  0  0  0  0  0
    3.0556    3.1264   -0.4180 H   0  0  0  0  0  0  0  0  0  0  0  0
   -1.3930   -0.2876    2.0610 H   0  0  0  0  0  0  0  0  0  0  0  0
   -1.7326   -0.2390   -2.8938 H   0  0  0  0  0  0  0  0  0  0  0  0
    0.1961    0.8019   -1.8152 H   0  0  0  0  0  0  0  0  0  0  0  0
  1  2  1  0
  2  3  1  0
  3  4  2  0
  4  5  2  0
  3  6  1  0
  6  7  2  0
  6  8  1  0
  8  9  2  0
  9 10  1  0
 10 11  1  0
 10 12  2  0
 12 13  1  0
 12 14  1  0
 14 15  2  0
  2 16  1  0
 16 17  1  0
 16 18  1  0
 16 19  1  0
 15  8  1  0
  1 20  1  0
  1 21  1  0
  2 22  1  6
  9 23  1  0
 14 24  1  0
 15 25  1  0
M  CHG  2   4   1   5  -1
M  END
