
     RDKit          3D

 31 32  0  0  0  0  0  0  0  0999 V2000
   -0.6332    3.8463   -2.8177 N   0  0  0  0  0  0  0  0  0  0  0  0
    0.2143    3.1988   -1.7815 C   0  0  1  0  0  0  0  0  0  0  0  0
   -0.6725    2.5353   -0.7750 C   0  0  0  0  0  0  0  0  0  0  0  0
   -1.9373    2.2362   -0.9654 N   0  0  0  0  0  4  0  0  0  0  0  0
   -3.0258    1.9408   -1.1348 N   0  0  0  0  0  2  0  0  0  0  0  0
   -0.1360    2.1625    0.5575 C   0  0  0  0  0  0  0  0  0  0  0  0
    0.2851    3.0954    1.2283 O   0  0  0  0  0  0  0  0  0  0  0  0
   -0.0857    0.7555    1.0284 C   0  0  0  0  0  0  0  0  0  0  0  0
   -0.3279   -0.3280    0.1754 C   0  0  0  0  0  0  0  0  0  0  0  0
   -0.2643   -1.6471    0.6586 C   0  0  0  0  0  0  0  0  0  0  0  0
   -0.5076   -2.7451   -0.1827 C   0  0  0  0  0  0  0  0  0  0  0  0
   -0.4416   -4.0499    0.3089 C   0  0  0  0  0  0  0  0  0  0  0  0
   -0.1312   -4.2746    1.6466 C   0  0  0  0  0  0  0  0  0  0  0  0
    0.1145   -3.1954    2.4964 C   0  0  0  0  0  0  0  0  0  0  0  0
    0.0521   -1.8772    2.0178 C   0  0  0  0  0  0  0  0  0  0  0  0
    0.2998   -0.7837    2.8601 C   0  0  0  0  0  0  0  0  0  0  0  0
    0.2340    0.5219    2.3694 C   0  0  0  0  0  0  0  0  0  0  0  0
    1.2502    2.1739   -2.2965 C   0  0  0  0  0  0  0  0  0  0  0  0
    2.0402    1.7101   -1.3077 F   0  0  0  0  0  0  0  0  0  0  0  0
    2.0458    2.7267   -3.2397 F   0  0  0  0  0  0  0  0  0  0  0  0
    0.6278    1.1111   -2.8603 F   0  0  0  0  0  0  0  0  0  0  0  0
   -0.0315    4.4127   -3.4221 H   0  0  0  0  0  0  0  0  0  0  0  0
   -1.0258    3.1352   -3.4405 H   0  0  0  0  0  0  0  0  0  0  0  0
    0.7542    4.0030   -1.2688 H   0  0  0  0  0  0  0  0  0  0  0  0
   -0.5596   -0.1732   -0.8747 H   0  0  0  0  0  0  0  0  0  0  0  0
   -0.7526   -2.5944   -1.2320 H   0  0  0  0  0  0  0  0  0  0  0  0
   -0.6331   -4.8903   -0.3535 H   0  0  0  0  0  0  0  0  0  0  0  0
   -0.0797   -5.2905    2.0302 H   0  0  0  0  0  0  0  0  0  0  0  0
    0.3564   -3.3924    3.5387 H   0  0  0  0  0  0  0  0  0  0  0  0
    0.5483   -0.9397    3.9081 H   0  0  0  0  0  0  0  0  0  0  0  0
    0.4334    1.3542    3.0425 H   0  0  0  0  0  0  0  0  0  0  0  0
  1  2  1  0
  2  3  1  0
  3  4  2  0
  4  5  2  0
  3  6  1  0
  6  7  2  0
  6  8  1  0
  8  9  2  0
  9 10  1  0
 10 11  2  0
 11 12  1  0
 12 13  2  0
 13 14  1  0
 14 15  2  0
 15 16  1  0
 16 17  2  0
  2 18  1  0
 18 19  1  0
 18 20  1  0
 18 21  1  0
 17  8  1  0
 15 10  1  0
  1 22  1  0
  1 23  1  0
  2 24  1  1
  9 25  1  0
 11 26  1  0
 12 27  1  0
 13 28  1  0
 14 29  1  0
 16 30  1  0
 17 31  1  0
M  CHG  2   4   1   5  -1
M  END
