
     RDKit          3D

 31 31  0  0  0  0  0  0  0  0999 V2000
    0.8637   -3.3940   -0.5111 N   0  0  0  0  0  0  0  0  0  0  0  0
    0.0770   -2.2119   -0.8832 C   0  0  2  0  0  0  0  0  0  0  0  0
    0.0110   -1.3381    0.3325 C   0  0  0  0  0  0  0  0  0  0  0  0
   -0.7919   -1.5444    1.3522 N   0  0  0  0  0  4  0  0  0  0  0  0
   -1.4938   -1.7190    2.2328 N   0  0  0  0  0  2  0  0  0  0  0  0
    0.9566   -0.2127    0.5020 C   0  0  0  0  0  0  0  0  0  0  0  0
    2.1135   -0.5373    0.7339 O   0  0  0  0  0  0  0  0  0  0  0  0
    0.5209    1.1970    0.3594 C   0  0  0  0  0  0  0  0  0  0  0  0
   -0.7909    1.5393    0.0105 C   0  0  0  0  0  0  0  0  0  0  0  0
   -1.1486    2.8840   -0.1179 C   0  0  0  0  0  0  0  0  0  0  0  0
   -0.2031    3.8859    0.0986 C   0  0  0  0  0  0  0  0  0  0  0  0
    1.1042    3.5489    0.4442 C   0  0  0  0  0  0  0  0  0  0  0  0
    1.4670    2.2076    0.5741 C   0  0  0  0  0  0  0  0  0  0  0  0
   -1.3384   -2.5118   -1.4250 C   0  0  0  0  0  0  0  0  0  0  0  0
   -1.9516   -3.4015   -0.5934 F   0  0  0  0  0  0  0  0  0  0  0  0
   -2.0703   -1.3550   -1.3135 F   0  0  0  0  0  0  0  0  0  0  0  0
   -1.4184   -2.9850   -2.8658 C   0  0  0  0  0  0  0  0  0  0  0  0
   -2.7416   -3.1248   -3.2003 F   0  0  0  0  0  0  0  0  0  0  0  0
   -0.9412   -2.0050   -3.6942 F   0  0  0  0  0  0  0  0  0  0  0  0
   -0.6913   -4.2890   -3.1270 C   0  0  0  0  0  0  0  0  0  0  0  0
    0.6525   -4.1581   -3.0667 F   0  0  0  0  0  0  0  0  0  0  0  0
   -1.0559   -5.2726   -2.2747 F   0  0  0  0  0  0  0  0  0  0  0  0
   -0.9594   -4.7412   -4.3819 F   0  0  0  0  0  0  0  0  0  0  0  0
    1.7845   -3.1049   -0.1615 H   0  0  0  0  0  0  0  0  0  0  0  0
    0.4230   -3.9101    0.2558 H   0  0  0  0  0  0  0  0  0  0  0  0
    0.6244   -1.6519   -1.6511 H   0  0  0  0  0  0  0  0  0  0  0  0
   -1.5561    0.7892   -0.1664 H   0  0  0  0  0  0  0  0  0  0  0  0
   -2.1682    3.1519   -0.3868 H   0  0  0  0  0  0  0  0  0  0  0  0
   -0.4861    4.9314   -0.0016 H   0  0  0  0  0  0  0  0  0  0  0  0
    1.8416    4.3302    0.6133 H   0  0  0  0  0  0  0  0  0  0  0  0
    2.4914    1.9562    0.8444 H   0  0  0  0  0  0  0  0  0  0  0  0
  1  2  1  0
  2  3  1  0
  3  4  2  0
  4  5  2  0
  3  6  1  0
  6  7  2  0
  6  8  1  0
  8  9  2  0
  9 10  1  0
 10 11  2  0
 11 12  1  0
 12 13  2  0
  2 14  1  0
 14 15  1  0
 14 16  1  0
 14 17  1  0
 17 18  1  0
 17 19  1  0
 17 20  1  0
 20 21  1  0
 20 22  1  0
 20 23  1  0
 13  8  1  0
  1 24  1  0
  1 25  1  0
  2 26  1  6
  9 27  1  0
 10 28  1  0
 11 29  1  0
 12 30  1  0
 13 31  1  0
M  CHG  2   4   1   5  -1
M  END
