
     RDKit          3D

 25 25  0  0  0  0  0  0  0  0999 V2000
   -0.0154   -1.1851    3.9064 N   0  0  0  0  0  0  0  0  0  0  0  0
   -0.8189   -0.0626    3.3741 C   0  0  2  0  0  0  0  0  0  0  0  0
   -2.1310    0.2233    4.1273 C   0  0  0  0  0  0  0  0  0  0  0  0
   -1.8379    0.6344    5.3897 F   0  0  0  0  0  0  0  0  0  0  0  0
   -2.8368   -0.9321    4.2593 F   0  0  0  0  0  0  0  0  0  0  0  0
   -1.1107   -0.3530    1.9452 C   0  0  0  0  0  0  0  0  0  0  0  0
   -1.5913   -1.4901    1.4965 N   0  0  0  0  0  4  0  0  0  0  0  0
   -2.0037   -2.4773    1.1020 N   0  0  0  0  0  2  0  0  0  0  0  0
   -1.0504    0.7347    0.9489 C   0  0  0  0  0  0  0  0  0  0  0  0
   -1.9072    1.5990    1.0749 O   0  0  0  0  0  0  0  0  0  0  0  0
    0.0078    0.7689   -0.0864 C   0  0  0  0  0  0  0  0  0  0  0  0
   -0.0808    1.7305   -1.1002 C   0  0  0  0  0  0  0  0  0  0  0  0
    0.8998    1.7946   -2.0910 C   0  0  0  0  0  0  0  0  0  0  0  0
    1.9712    0.9027   -2.0694 C   0  0  0  0  0  0  0  0  0  0  0  0
    2.0663   -0.0524   -1.0573 C   0  0  0  0  0  0  0  0  0  0  0  0
    1.0878   -0.1216   -0.0629 C   0  0  0  0  0  0  0  0  0  0  0  0
   -0.6387   -1.9863    4.0571 H   0  0  0  0  0  0  0  0  0  0  0  0
    0.2746   -0.9362    4.8573 H   0  0  0  0  0  0  0  0  0  0  0  0
   -0.1864    0.8312    3.4225 H   0  0  0  0  0  0  0  0  0  0  0  0
   -2.7619    0.9727    3.6417 H   0  0  0  0  0  0  0  0  0  0  0  0
   -0.9134    2.4312   -1.1247 H   0  0  0  0  0  0  0  0  0  0  0  0
    0.8279    2.5402   -2.8793 H   0  0  0  0  0  0  0  0  0  0  0  0
    2.7351    0.9531   -2.8421 H   0  0  0  0  0  0  0  0  0  0  0  0
    2.9061   -0.7437   -1.0422 H   0  0  0  0  0  0  0  0  0  0  0  0
    1.1960   -0.8700    0.7185 H   0  0  0  0  0  0  0  0  0  0  0  0
  1  2  1  0
  2  3  1  0
  3  4  1  0
  3  5  1  0
  2  6  1  0
  6  7  2  0
  7  8  2  0
  6  9  1  0
  9 10  2  0
  9 11  1  0
 11 12  2  0
 12 13  1  0
 13 14  2  0
 14 15  1  0
 15 16  2  0
 16 11  1  0
  1 17  1  0
  1 18  1  0
  2 19  1  6
  3 20  1  0
 12 21  1  0
 13 22  1  0
 14 23  1  0
 15 24  1  0
 16 25  1  0
M  CHG  2   7   1   8  -1
M  END
