
     RDKit          3D

 34 35  0  0  0  0  0  0  0  0999 V2000
   -0.1455    0.4408   -0.9875 N   0  0  0  0  0  0  0  0  0  0  0  0
   -0.6053   -0.7768   -0.4240 C   0  0  2  0  0  0  0  0  0  0  0  0
   -1.3524   -0.5363    0.8415 C   0  0  0  0  0  0  0  0  0  0  0  0
   -2.8778    0.6017    0.4359 Se  0  0  0  0  0  2  0  0  0  0  0  0
   -2.3495    1.8393   -0.9258 C   0  0  0  0  0  0  0  0  0  0  0  0
   -1.9051    3.0987   -0.5296 C   0  0  0  0  0  0  0  0  0  0  0  0
   -1.5152    4.0174   -1.4950 C   0  0  0  0  0  0  0  0  0  0  0  0
   -1.5729    3.6721   -2.8306 C   0  0  0  0  0  0  0  0  0  0  0  0
   -2.0095    2.4316   -3.2423 C   0  0  0  0  0  0  0  0  0  0  0  0
   -2.3911    1.5361   -2.2714 C   0  0  0  0  0  0  0  0  0  0  0  0
    0.5840   -1.7037   -0.2315 C   0  0  0  0  0  0  0  0  0  0  0  0
    1.5796   -1.0862    0.6762 C   0  0  0  0  0  0  0  0  0  0  0  0
    1.4815   -1.3138    2.0310 C   0  0  0  0  0  0  0  0  0  0  0  0
    2.4007   -0.7502    2.9251 C   0  0  0  0  0  0  0  0  0  0  0  0
    3.4205    0.0451    2.4434 C   0  0  0  0  0  0  0  0  0  0  0  0
    3.5314    0.2820    1.0882 C   0  0  0  0  0  0  0  0  0  0  0  0
    2.5979   -0.2947    0.2184 C   0  0  0  0  0  0  0  0  0  0  0  0
    0.2567    0.4078   -1.9165 H   0  0  0  0  0  0  0  0  0  0  0  0
    0.2325    1.1368   -0.3305 H   0  0  0  0  0  0  0  0  0  0  0  0
   -1.2678   -1.2776   -1.1591 H   0  0  0  0  0  0  0  0  0  0  0  0
   -1.6821   -1.4707    1.3418 H   0  0  0  0  0  0  0  0  0  0  0  0
   -0.7410    0.0102    1.5882 H   0  0  0  0  0  0  0  0  0  0  0  0
   -1.8613    3.3640    0.5070 H   0  0  0  0  0  0  0  0  0  0  0  0
   -1.1715    4.9952   -1.1637 H   0  0  0  0  0  0  0  0  0  0  0  0
   -1.2656    4.4026   -3.5478 H   0  0  0  0  0  0  0  0  0  0  0  0
   -2.0334    2.2165   -4.3053 H   0  0  0  0  0  0  0  0  0  0  0  0
   -2.7344    0.5651   -2.5649 H   0  0  0  0  0  0  0  0  0  0  0  0
    1.0971   -1.9103   -1.1917 H   0  0  0  0  0  0  0  0  0  0  0  0
    0.2710   -2.6853    0.1784 H   0  0  0  0  0  0  0  0  0  0  0  0
    0.6756   -1.9382    2.3758 H   0  0  0  0  0  0  0  0  0  0  0  0
    2.3173   -0.9323    3.9786 H   0  0  0  0  0  0  0  0  0  0  0  0
    4.1337    0.4818    3.1418 H   0  0  0  0  0  0  0  0  0  0  0  0
    4.3328    0.9031    0.7432 H   0  0  0  0  0  0  0  0  0  0  0  0
    2.6953   -0.1017   -0.8422 H   0  0  0  0  0  0  0  0  0  0  0  0
  1  2  1  0
  2  3  1  0
  3  4  1  0
  4  5  1  0
  5  6  2  0
  6  7  1  0
  7  8  2  0
  8  9  1  0
  9 10  2  0
  2 11  1  0
 11 12  1  0
 12 13  2  0
 13 14  1  0
 14 15  2  0
 15 16  1  0
 16 17  2  0
 10  5  1  0
 17 12  1  0
  1 18  1  0
  1 19  1  0
  2 20  1  6
  3 21  1  0
  3 22  1  0
  6 23  1  0
  7 24  1  0
  8 25  1  0
  9 26  1  0
 10 27  1  0
 11 28  1  0
 11 29  1  0
 13 30  1  0
 14 31  1  0
 15 32  1  0
 16 33  1  0
 17 34  1  0
M  END
