
     RDKit          3D

 38 37  0  0  0  0  0  0  0  0999 V2000
    1.5475    3.6455    2.1210 C   0  0  0  0  0  0  0  0  0  0  0  0
    2.0187    3.9419    0.7054 C   0  0  0  0  0  0  0  0  0  0  0  0
    1.8175    2.7776   -0.2698 C   0  0  0  0  0  0  0  0  0  0  0  0
    3.0295    1.8526   -0.4283 C   0  0  0  0  0  0  0  0  0  0  0  0
    3.4120    1.0123    0.7881 C   0  0  0  0  0  0  0  0  0  0  0  0
    2.3352    0.0707    1.3389 C   0  0  0  0  0  0  0  0  0  0  0  0
    1.9633   -1.0962    0.4146 C   0  0  0  0  0  0  0  0  0  0  0  0
    0.7538   -0.8030   -0.4859 C   0  0  0  0  0  0  0  0  0  0  0  0
    0.2786   -2.0353   -1.2857 C   0  0  2  0  0  0  0  0  0  0  0  0
    1.3843   -2.5087   -2.1402 N   0  0  0  0  0  0  0  0  0  0  0  0
   -0.9613   -1.7352   -2.1507 C   0  0  0  0  0  0  0  0  0  0  0  0
   -2.4836   -1.5949   -1.1383 S   0  0  0  0  0  4  0  0  0  0  0  0
   -3.5012   -1.6162   -2.4586 N   0  0  0  0  0  0  0  0  0  0  0  0
   -2.4873   -0.2379   -0.5062 O   0  0  0  0  0  0  0  0  0  0  0  0
    1.6308    4.5460    2.7383 H   0  0  0  0  0  0  0  0  0  0  0  0
    0.4992    3.3303    2.1280 H   0  0  0  0  0  0  0  0  0  0  0  0
    2.1441    2.8649    2.5973 H   0  0  0  0  0  0  0  0  0  0  0  0
    1.4351    4.7963    0.3402 H   0  0  0  0  0  0  0  0  0  0  0  0
    3.0663    4.2625    0.7184 H   0  0  0  0  0  0  0  0  0  0  0  0
    0.9165    2.2096   -0.0159 H   0  0  0  0  0  0  0  0  0  0  0  0
    1.6274    3.2123   -1.2602 H   0  0  0  0  0  0  0  0  0  0  0  0
    3.8987    2.4614   -0.7095 H   0  0  0  0  0  0  0  0  0  0  0  0
    2.8564    1.1873   -1.2815 H   0  0  0  0  0  0  0  0  0  0  0  0
    4.2963    0.4165    0.5268 H   0  0  0  0  0  0  0  0  0  0  0  0
    3.7417    1.6789    1.5927 H   0  0  0  0  0  0  0  0  0  0  0  0
    2.7451   -0.3638    2.2605 H   0  0  0  0  0  0  0  0  0  0  0  0
    1.4428    0.6266    1.6443 H   0  0  0  0  0  0  0  0  0  0  0  0
    2.8337   -1.3949   -0.1800 H   0  0  0  0  0  0  0  0  0  0  0  0
    1.7070   -1.9555    1.0481 H   0  0  0  0  0  0  0  0  0  0  0  0
   -0.0600   -0.4475    0.1541 H   0  0  0  0  0  0  0  0  0  0  0  0
    0.9847    0.0106   -1.1802 H   0  0  0  0  0  0  0  0  0  0  0  0
    0.0430   -2.8428   -0.5816 H   0  0  0  0  0  0  0  0  0  0  0  0
    1.6587   -1.7745   -2.7929 H   0  0  0  0  0  0  0  0  0  0  0  0
    1.0818   -3.3015   -2.7047 H   0  0  0  0  0  0  0  0  0  0  0  0
   -1.1261   -2.5634   -2.8508 H   0  0  0  0  0  0  0  0  0  0  0  0
   -0.8360   -0.8132   -2.7295 H   0  0  0  0  0  0  0  0  0  0  0  0
   -3.8452   -0.6866   -2.7023 H   0  0  0  0  0  0  0  0  0  0  0  0
   -4.3514   -2.1624   -2.3282 H   0  0  0  0  0  0  0  0  0  0  0  0
  1  2  1  0
  2  3  1  0
  3  4  1  0
  4  5  1  0
  5  6  1  0
  6  7  1  0
  7  8  1  0
  8  9  1  0
  9 10  1  0
  9 11  1  0
 11 12  1  0
 12 13  1  0
 12 14  2  0
  1 15  1  0
  1 16  1  0
  1 17  1  0
  2 18  1  0
  2 19  1  0
  3 20  1  0
  3 21  1  0
  4 22  1  0
  4 23  1  0
  5 24  1  0
  5 25  1  0
  6 26  1  0
  6 27  1  0
  7 28  1  0
  7 29  1  0
  8 30  1  0
  8 31  1  0
  9 32  1  1
 10 33  1  0
 10 34  1  0
 11 35  1  0
 11 36  1  0
 13 37  1  0
 13 38  1  0
M  END
