
     RDKit          3D

 20 19  0  0  0  0  0  0  0  0999 V2000
   -0.0705    1.6791   -2.9452 C   0  0  0  0  0  0  0  0  0  0  0  0
    0.1839    2.1145   -1.2082 S   0  0  0  0  0  0  0  0  0  0  0  0
   -1.1725    1.1259   -0.4829 C   0  0  0  0  0  0  0  0  0  0  0  0
   -1.1706    1.2056    1.0480 C   0  0  0  0  0  0  0  0  0  0  0  0
   -0.3665    0.1079    1.7728 C   0  0  2  0  0  0  0  0  0  0  0  0
    1.0104   -0.0154    1.2677 N   0  0  0  0  0  0  0  0  0  0  0  0
   -1.0902   -1.2515    1.7137 C   0  0  0  0  0  0  0  0  0  0  0  0
   -0.3943   -2.5159    2.7289 S   0  0  0  0  0  0  0  0  0  0  0  0
   -2.1041   -1.4846    1.0670 O   0  0  0  0  0  0  0  0  0  0  0  0
    0.6683    2.2010   -3.5591 H   0  0  0  0  0  0  0  0  0  0  0  0
   -1.0692    1.9811   -3.2711 H   0  0  0  0  0  0  0  0  0  0  0  0
    0.0553    0.6030   -3.0903 H   0  0  0  0  0  0  0  0  0  0  0  0
   -2.1097    1.5511   -0.8577 H   0  0  0  0  0  0  0  0  0  0  0  0
   -1.1038    0.0927   -0.8352 H   0  0  0  0  0  0  0  0  0  0  0  0
   -0.8266    2.1932    1.3827 H   0  0  0  0  0  0  0  0  0  0  0  0
   -2.2142    1.1308    1.3836 H   0  0  0  0  0  0  0  0  0  0  0  0
   -0.3237    0.3982    2.8309 H   0  0  0  0  0  0  0  0  0  0  0  0
    1.4214    0.9118    1.1482 H   0  0  0  0  0  0  0  0  0  0  0  0
    1.5864   -0.5149    1.9451 H   0  0  0  0  0  0  0  0  0  0  0  0
   -1.2667   -3.4535    2.3363 H   0  0  0  0  0  0  0  0  0  0  0  0
  1  2  1  0
  2  3  1  0
  3  4  1  0
  4  5  1  0
  5  6  1  0
  5  7  1  0
  7  8  1  0
  7  9  2  0
  1 10  1  0
  1 11  1  0
  1 12  1  0
  3 13  1  0
  3 14  1  0
  4 15  1  0
  4 16  1  0
  5 17  1  1
  6 18  1  0
  6 19  1  0
  8 20  1  0
M  END
