
     RDKit          3D

 26 25  0  0  0  0  0  0  0  0999 V2000
    0.5265    2.8176   -1.3162 C   0  0  0  0  0  0  0  0  0  0  0  0
   -0.1621    1.5167   -0.8321 C   0  0  0  0  0  0  0  0  0  0  0  0
   -1.1287    1.0498   -1.9382 C   0  0  0  0  0  0  0  0  0  0  0  0
    0.9537    0.4600   -0.6932 C   0  0  0  0  0  0  0  0  0  0  0  0
   -0.8910    1.7696    0.5440 C   0  0  1  0  0  0  0  0  0  0  0  0
   -1.8365    2.9026    0.4692 N   0  0  0  0  0  0  0  0  0  0  0  0
   -1.6910    0.5841    1.1528 C   0  0  0  0  0  0  0  0  0  0  0  0
   -0.8783   -0.5582    1.6977 C   0  0  0  0  0  0  0  0  0  0  0  0
   -0.4542   -0.6349    2.9658 C   0  0  0  0  0  0  0  0  0  0  0  0
    1.1363    2.6359   -2.2092 H   0  0  0  0  0  0  0  0  0  0  0  0
   -0.2001    3.5905   -1.5879 H   0  0  0  0  0  0  0  0  0  0  0  0
    1.1867    3.2246   -0.5421 H   0  0  0  0  0  0  0  0  0  0  0  0
   -0.5958    0.9037   -2.8854 H   0  0  0  0  0  0  0  0  0  0  0  0
   -1.9211    1.7814   -2.1250 H   0  0  0  0  0  0  0  0  0  0  0  0
   -1.6010    0.0950   -1.6864 H   0  0  0  0  0  0  0  0  0  0  0  0
    0.5525   -0.5513   -0.5959 H   0  0  0  0  0  0  0  0  0  0  0  0
    1.5942    0.6687    0.1705 H   0  0  0  0  0  0  0  0  0  0  0  0
    1.5972    0.4444   -1.5813 H   0  0  0  0  0  0  0  0  0  0  0  0
   -0.1271    2.0615    1.2774 H   0  0  0  0  0  0  0  0  0  0  0  0
   -2.5264    2.7383   -0.2612 H   0  0  0  0  0  0  0  0  0  0  0  0
   -1.3429    3.7571    0.2202 H   0  0  0  0  0  0  0  0  0  0  0  0
   -2.4125    0.1883    0.4280 H   0  0  0  0  0  0  0  0  0  0  0  0
   -2.3074    0.9662    1.9807 H   0  0  0  0  0  0  0  0  0  0  0  0
   -0.6693   -1.3864    1.0258 H   0  0  0  0  0  0  0  0  0  0  0  0
   -0.6586    0.1557    3.6819 H   0  0  0  0  0  0  0  0  0  0  0  0
    0.1089   -1.4951    3.3142 H   0  0  0  0  0  0  0  0  0  0  0  0
  1  2  1  0
  2  3  1  0
  2  4  1  0
  2  5  1  0
  5  6  1  0
  5  7  1  0
  7  8  1  0
  8  9  2  3
  1 10  1  0
  1 11  1  0
  1 12  1  0
  3 13  1  0
  3 14  1  0
  3 15  1  0
  4 16  1  0
  4 17  1  0
  4 18  1  0
  5 19  1  1
  6 20  1  0
  6 21  1  0
  7 22  1  0
  7 23  1  0
  8 24  1  0
  9 25  1  0
  9 26  1  0
M  END
