
     RDKit          3D

 20 20  0  0  0  0  0  0  0  0999 V2000
    0.4989   -2.8961   -0.2849 C   0  0  0  0  0  0  0  0  0  0  0  0
   -0.3143   -1.6561    0.0905 C   0  0  1  0  0  0  0  0  0  0  0  0
   -0.6263   -1.7103    1.5262 N   0  0  0  0  0  0  0  0  0  0  0  0
    0.4598   -0.3719   -0.2815 C   0  0  0  0  0  0  0  0  0  0  0  0
   -0.4024    0.8623   -0.3236 C   0  0  0  0  0  0  0  0  0  0  0  0
   -0.8951    1.4404   -1.4798 C   0  0  0  0  0  0  0  0  0  0  0  0
   -1.8327    2.8385   -1.1778 S   0  0  0  0  0  0  0  0  0  0  0  0
   -1.5980    2.6954    0.5079 C   0  0  0  0  0  0  0  0  0  0  0  0
   -0.8191    1.6064    0.8291 C   0  0  0  0  0  0  0  0  0  0  0  0
    1.4610   -2.9198    0.2392 H   0  0  0  0  0  0  0  0  0  0  0  0
   -0.0453   -3.8144   -0.0373 H   0  0  0  0  0  0  0  0  0  0  0  0
    0.7012   -2.9142   -1.3613 H   0  0  0  0  0  0  0  0  0  0  0  0
   -1.2606   -1.6834   -0.4634 H   0  0  0  0  0  0  0  0  0  0  0  0
    0.2353   -1.7670    2.0674 H   0  0  0  0  0  0  0  0  0  0  0  0
   -1.1471   -2.5626    1.7297 H   0  0  0  0  0  0  0  0  0  0  0  0
    0.9217   -0.5010   -1.2698 H   0  0  0  0  0  0  0  0  0  0  0  0
    1.2908   -0.2102    0.4181 H   0  0  0  0  0  0  0  0  0  0  0  0
   -0.7496    1.1086   -2.4986 H   0  0  0  0  0  0  0  0  0  0  0  0
   -2.0434    3.4121    1.1835 H   0  0  0  0  0  0  0  0  0  0  0  0
   -0.5657    1.3411    1.8489 H   0  0  0  0  0  0  0  0  0  0  0  0
  1  2  1  0
  2  3  1  0
  2  4  1  0
  4  5  1  0
  5  6  2  0
  6  7  1  0
  7  8  1  0
  8  9  2  0
  9  5  1  0
  1 10  1  0
  1 11  1  0
  1 12  1  0
  2 13  1  6
  3 14  1  0
  3 15  1  0
  4 16  1  0
  4 17  1  0
  6 18  1  0
  8 19  1  0
  9 20  1  0
M  END
