
     RDKit          3D

 32 32  0  0  0  0  0  0  0  0999 V2000
    0.3846   -1.7480   -2.4466 C   0  0  0  0  0  0  0  0  0  0  0  0
   -1.0499   -1.2256   -2.4083 C   0  0  2  0  0  0  0  0  0  0  0  0
   -1.4790   -0.8733   -3.7619 N   0  0  0  0  0  0  0  0  0  0  0  0
   -1.2263   -0.0416   -1.4404 C   0  0  0  0  0  0  0  0  0  0  0  0
   -0.4246    1.2172   -1.7998 C   0  0  0  0  0  0  0  0  0  0  0  0
   -0.6419    2.3738   -0.8130 C   0  0  0  0  0  0  0  0  0  0  0  0
    0.3699    2.4233    0.3398 C   0  0  0  0  0  0  0  0  0  0  0  0
    0.2327    1.3193    1.3562 C   0  0  0  0  0  0  0  0  0  0  0  0
    1.2101    0.3197    1.4569 C   0  0  0  0  0  0  0  0  0  0  0  0
    1.0804   -0.7056    2.3951 C   0  0  0  0  0  0  0  0  0  0  0  0
   -0.0246   -0.7400    3.2434 C   0  0  0  0  0  0  0  0  0  0  0  0
   -1.0002    0.2511    3.1554 C   0  0  0  0  0  0  0  0  0  0  0  0
   -0.8723    1.2769    2.2175 C   0  0  0  0  0  0  0  0  0  0  0  0
    0.7383   -1.9828   -1.4370 H   0  0  0  0  0  0  0  0  0  0  0  0
    1.0765   -1.0235   -2.8887 H   0  0  0  0  0  0  0  0  0  0  0  0
    0.4466   -2.6667   -3.0410 H   0  0  0  0  0  0  0  0  0  0  0  0
   -1.6938   -2.0399   -2.0534 H   0  0  0  0  0  0  0  0  0  0  0  0
   -2.4563   -0.5848   -3.7448 H   0  0  0  0  0  0  0  0  0  0  0  0
   -1.4319   -1.6962   -4.3612 H   0  0  0  0  0  0  0  0  0  0  0  0
   -2.2919    0.2205   -1.3953 H   0  0  0  0  0  0  0  0  0  0  0  0
   -0.9576   -0.3848   -0.4371 H   0  0  0  0  0  0  0  0  0  0  0  0
   -0.7477    1.5612   -2.7900 H   0  0  0  0  0  0  0  0  0  0  0  0
    0.6443    0.9930   -1.8793 H   0  0  0  0  0  0  0  0  0  0  0  0
   -0.5244    3.3096   -1.3752 H   0  0  0  0  0  0  0  0  0  0  0  0
   -1.6710    2.3711   -0.4350 H   0  0  0  0  0  0  0  0  0  0  0  0
    1.3886    2.4360   -0.0683 H   0  0  0  0  0  0  0  0  0  0  0  0
    0.2560    3.3794    0.8678 H   0  0  0  0  0  0  0  0  0  0  0  0
    2.0769    0.3304    0.8001 H   0  0  0  0  0  0  0  0  0  0  0  0
    1.8426   -1.4771    2.4639 H   0  0  0  0  0  0  0  0  0  0  0  0
   -0.1244   -1.5378    3.9744 H   0  0  0  0  0  0  0  0  0  0  0  0
   -1.8610    0.2267    3.8183 H   0  0  0  0  0  0  0  0  0  0  0  0
   -1.6405    2.0447    2.1616 H   0  0  0  0  0  0  0  0  0  0  0  0
  1  2  1  0
  2  3  1  0
  2  4  1  0
  4  5  1  0
  5  6  1  0
  6  7  1  0
  7  8  1  0
  8  9  2  0
  9 10  1  0
 10 11  2  0
 11 12  1  0
 12 13  2  0
 13  8  1  0
  1 14  1  0
  1 15  1  0
  1 16  1  0
  2 17  1  1
  3 18  1  0
  3 19  1  0
  4 20  1  0
  4 21  1  0
  5 22  1  0
  5 23  1  0
  6 24  1  0
  6 25  1  0
  7 26  1  0
  7 27  1  0
  9 28  1  0
 10 29  1  0
 11 30  1  0
 12 31  1  0
 13 32  1  0
M  END
