
     RDKit          3D

 42 43  0  0  0  0  0  0  0  0999 V2000
    3.0060   -0.0408   -1.3056 N   0  0  0  0  0  0  0  0  0  0  0  0
    1.7694    0.1268   -0.5224 C   0  0  2  0  0  0  0  0  0  0  0  0
    1.3887   -1.2544    0.0461 C   0  0  0  0  0  0  0  0  0  0  0  0
    0.2385   -1.1979    1.0579 C   0  0  0  0  0  0  0  0  0  0  0  0
   -0.0397   -2.5471    1.7342 C   0  0  0  0  0  0  0  0  0  0  0  0
   -0.5028   -3.6668    0.7934 C   0  0  0  0  0  0  0  0  0  0  0  0
   -1.8066   -3.3727    0.0927 C   0  0  0  0  0  0  0  0  0  0  0  0
   -3.0137   -3.3729    0.8052 C   0  0  0  0  0  0  0  0  0  0  0  0
   -4.2178   -3.0878    0.1594 C   0  0  0  0  0  0  0  0  0  0  0  0
   -4.2276   -2.8001   -1.2040 C   0  0  0  0  0  0  0  0  0  0  0  0
   -3.0341   -2.7992   -1.9229 C   0  0  0  0  0  0  0  0  0  0  0  0
   -1.8293   -3.0852   -1.2788 C   0  0  0  0  0  0  0  0  0  0  0  0
    0.6461    0.7312   -1.3981 C   0  0  0  0  0  0  0  0  0  0  0  0
    0.9375    2.1415   -1.8657 C   0  0  0  0  0  0  0  0  0  0  0  0
    1.3662    2.3812   -3.1782 C   0  0  0  0  0  0  0  0  0  0  0  0
    1.6474    3.6799   -3.6045 C   0  0  0  0  0  0  0  0  0  0  0  0
    1.5027    4.7503   -2.7240 C   0  0  0  0  0  0  0  0  0  0  0  0
    1.0769    4.5233   -1.4165 C   0  0  0  0  0  0  0  0  0  0  0  0
    0.7958    3.2251   -0.9879 C   0  0  0  0  0  0  0  0  0  0  0  0
    3.7621   -0.3301   -0.6865 H   0  0  0  0  0  0  0  0  0  0  0  0
    3.2839    0.8694   -1.6774 H   0  0  0  0  0  0  0  0  0  0  0  0
    1.9899    0.8052    0.3113 H   0  0  0  0  0  0  0  0  0  0  0  0
    1.1311   -1.9270   -0.7804 H   0  0  0  0  0  0  0  0  0  0  0  0
    2.2622   -1.6923    0.5476 H   0  0  0  0  0  0  0  0  0  0  0  0
   -0.6782   -0.8350    0.5833 H   0  0  0  0  0  0  0  0  0  0  0  0
    0.4913   -0.4718    1.8407 H   0  0  0  0  0  0  0  0  0  0  0  0
    0.8693   -2.8804    2.2503 H   0  0  0  0  0  0  0  0  0  0  0  0
   -0.7947   -2.3899    2.5148 H   0  0  0  0  0  0  0  0  0  0  0  0
   -0.6299   -4.5890    1.3756 H   0  0  0  0  0  0  0  0  0  0  0  0
    0.2796   -3.8949    0.0602 H   0  0  0  0  0  0  0  0  0  0  0  0
   -3.0221   -3.5960    1.8696 H   0  0  0  0  0  0  0  0  0  0  0  0
   -5.1483   -3.0903    0.7206 H   0  0  0  0  0  0  0  0  0  0  0  0
   -5.1651   -2.5777   -1.7064 H   0  0  0  0  0  0  0  0  0  0  0  0
   -3.0403   -2.5755   -2.9864 H   0  0  0  0  0  0  0  0  0  0  0  0
   -0.9072   -3.0789   -1.8556 H   0  0  0  0  0  0  0  0  0  0  0  0
    0.4548    0.0843   -2.2649 H   0  0  0  0  0  0  0  0  0  0  0  0
   -0.2989    0.7645   -0.8439 H   0  0  0  0  0  0  0  0  0  0  0  0
    1.4878    1.5534   -3.8739 H   0  0  0  0  0  0  0  0  0  0  0  0
    1.9790    3.8556   -4.6245 H   0  0  0  0  0  0  0  0  0  0  0  0
    1.7202    5.7615   -3.0574 H   0  0  0  0  0  0  0  0  0  0  0  0
    0.9618    5.3582   -0.7303 H   0  0  0  0  0  0  0  0  0  0  0  0
    0.4621    3.0636    0.0345 H   0  0  0  0  0  0  0  0  0  0  0  0
  1  2  1  0
  2  3  1  0
  3  4  1  0
  4  5  1  0
  5  6  1  0
  6  7  1  0
  7  8  2  0
  8  9  1  0
  9 10  2  0
 10 11  1  0
 11 12  2  0
  2 13  1  0
 13 14  1  0
 14 15  2  0
 15 16  1  0
 16 17  2  0
 17 18  1  0
 18 19  2  0
 12  7  1  0
 19 14  1  0
  1 20  1  0
  1 21  1  0
  2 22  1  1
  3 23  1  0
  3 24  1  0
  4 25  1  0
  4 26  1  0
  5 27  1  0
  5 28  1  0
  6 29  1  0
  6 30  1  0
  8 31  1  0
  9 32  1  0
 10 33  1  0
 11 34  1  0
 12 35  1  0
 13 36  1  0
 13 37  1  0
 15 38  1  0
 16 39  1  0
 17 40  1  0
 18 41  1  0
 19 42  1  0
M  END
