
     RDKit          3D

 23 22  0  0  0  0  0  0  0  0999 V2000
   -0.8765   -1.9500   -2.5637 C   0  0  0  0  0  0  0  0  0  0  0  0
   -0.3183   -2.0115   -1.1505 C   0  0  0  0  0  0  0  0  0  0  0  0
    0.6168   -0.8685   -0.8811 C   0  0  0  0  0  0  0  0  0  0  0  0
    0.4072    0.0660    0.0610 C   0  0  0  0  0  0  0  0  0  0  0  0
    1.3499    1.2040    0.3442 C   0  0  1  0  0  0  0  0  0  0  0  0
    0.6652    2.4599    0.0436 N   0  0  0  0  0  0  0  0  0  0  0  0
    1.8225    1.2246    1.8073 C   0  0  0  0  0  0  0  0  0  0  0  0
    2.6555    0.0045    2.1822 C   0  0  0  0  0  0  0  0  0  0  0  0
   -1.4475   -1.0290   -2.7235 H   0  0  0  0  0  0  0  0  0  0  0  0
   -1.5449   -2.7981   -2.7433 H   0  0  0  0  0  0  0  0  0  0  0  0
   -0.0750   -1.9881   -3.3093 H   0  0  0  0  0  0  0  0  0  0  0  0
    0.2277   -2.9520   -1.0146 H   0  0  0  0  0  0  0  0  0  0  0  0
   -1.1485   -2.0178   -0.4347 H   0  0  0  0  0  0  0  0  0  0  0  0
    1.5157   -0.8230   -1.4935 H   0  0  0  0  0  0  0  0  0  0  0  0
   -0.4887    0.0090    0.6763 H   0  0  0  0  0  0  0  0  0  0  0  0
    2.2306    1.1407   -0.3065 H   0  0  0  0  0  0  0  0  0  0  0  0
    0.3214    2.4242   -0.9151 H   0  0  0  0  0  0  0  0  0  0  0  0
   -0.1526    2.5571    0.6415 H   0  0  0  0  0  0  0  0  0  0  0  0
    2.4331    2.1205    1.9796 H   0  0  0  0  0  0  0  0  0  0  0  0
    0.9655    1.2920    2.4902 H   0  0  0  0  0  0  0  0  0  0  0  0
    3.0238    0.1028    3.2084 H   0  0  0  0  0  0  0  0  0  0  0  0
    3.5215   -0.0971    1.5204 H   0  0  0  0  0  0  0  0  0  0  0  0
    2.0675   -0.9166    2.1269 H   0  0  0  0  0  0  0  0  0  0  0  0
  1  2  1  0
  2  3  1  0
  3  4  2  0
  4  5  1  0
  5  6  1  0
  5  7  1  0
  7  8  1  0
  1  9  1  0
  1 10  1  0
  1 11  1  0
  2 12  1  0
  2 13  1  0
  3 14  1  0
  4 15  1  0
  5 16  1  6
  6 17  1  0
  6 18  1  0
  7 19  1  0
  7 20  1  0
  8 21  1  0
  8 22  1  0
  8 23  1  0
M  END
