
     RDKit          3D

 27 27  0  0  0  0  0  0  0  0999 V2000
   -2.4457   -2.3350   -1.9383 C   0  0  0  0  0  0  0  0  0  0  0  0
   -1.0251   -1.8109   -1.9416 C   0  0  2  0  0  0  0  0  0  0  0  0
   -0.5962   -1.3990   -0.6303 N   0  0  0  0  0  0  0  0  0  0  0  0
   -1.0226   -0.5782   -2.8366 C   0  0  0  0  0  0  0  0  0  0  0  0
    0.7824    0.1881   -2.9135 Se  0  0  0  0  0  2  0  0  0  0  0  0
    0.9950    1.2900   -1.3551 C   0  0  0  0  0  0  0  0  0  0  0  0
    1.7702    0.8926   -0.2853 C   0  0  0  0  0  0  0  0  0  0  0  0
    1.9270    1.6786    0.8365 C   0  0  0  0  0  0  0  0  0  0  0  0
    1.3149    2.9087    0.9493 C   0  0  0  0  0  0  0  0  0  0  0  0
    1.4853    3.7601    2.1653 C   0  0  0  0  0  0  0  0  0  0  0  0
    0.5401    3.3063   -0.1195 C   0  0  0  0  0  0  0  0  0  0  0  0
    0.3820    2.5209   -1.2429 C   0  0  0  0  0  0  0  0  0  0  0  0
   -2.7670   -2.5256   -2.9658 H   0  0  0  0  0  0  0  0  0  0  0  0
   -2.5552   -3.2162   -1.2734 H   0  0  0  0  0  0  0  0  0  0  0  0
   -3.1170   -1.5423   -1.5115 H   0  0  0  0  0  0  0  0  0  0  0  0
   -0.3529   -2.5759   -2.3760 H   0  0  0  0  0  0  0  0  0  0  0  0
    0.3519   -1.7498   -0.4232 H   0  0  0  0  0  0  0  0  0  0  0  0
   -1.2550   -1.6221    0.1284 H   0  0  0  0  0  0  0  0  0  0  0  0
   -1.4145   -0.7816   -3.8361 H   0  0  0  0  0  0  0  0  0  0  0  0
   -1.7085    0.1527   -2.3546 H   0  0  0  0  0  0  0  0  0  0  0  0
    2.2575   -0.0774   -0.3653 H   0  0  0  0  0  0  0  0  0  0  0  0
    2.5436    1.3577    1.6822 H   0  0  0  0  0  0  0  0  0  0  0  0
    2.0798    3.1901    2.8932 H   0  0  0  0  0  0  0  0  0  0  0  0
    0.5081    3.9853    2.6451 H   0  0  0  0  0  0  0  0  0  0  0  0
    1.9939    4.7139    1.9249 H   0  0  0  0  0  0  0  0  0  0  0  0
    0.0511    4.2761   -0.0428 H   0  0  0  0  0  0  0  0  0  0  0  0
   -0.2299    2.8325   -2.0895 H   0  0  0  0  0  0  0  0  0  0  0  0
  1  2  1  0
  2  3  1  0
  2  4  1  0
  4  5  1  0
  5  6  1  0
  6  7  2  0
  7  8  1  0
  8  9  2  0
  9 10  1  0
  9 11  1  0
 11 12  2  0
 12  6  1  0
  1 13  1  0
  1 14  1  0
  1 15  1  0
  2 16  1  6
  3 17  1  0
  3 18  1  0
  4 19  1  0
  4 20  1  0
  7 21  1  0
  8 22  1  0
 10 23  1  0
 10 24  1  0
 10 25  1  0
 11 26  1  0
 12 27  1  0
M  END
