
     RDKit          3D

 33 34  0  0  0  0  0  0  0  0999 V2000
   -0.4670    3.3965    1.6726 N   0  0  0  0  0  0  0  0  0  0  0  0
    0.0965    2.0933    1.2170 C   0  0  1  0  0  0  0  0  0  0  0  0
   -0.5861    0.9625    2.0116 C   0  0  0  0  0  0  0  0  0  0  0  0
    0.2281   -0.3094    2.1067 C   0  0  0  0  0  0  0  0  0  0  0  0
   -0.2401   -1.5040    1.5440 C   0  0  0  0  0  0  0  0  0  0  0  0
    0.5220   -2.6708    1.6231 C   0  0  0  0  0  0  0  0  0  0  0  0
    1.7513   -2.6601    2.2788 C   0  0  0  0  0  0  0  0  0  0  0  0
    2.2164   -1.4847    2.8636 C   0  0  0  0  0  0  0  0  0  0  0  0
    1.4572   -0.3166    2.7827 C   0  0  0  0  0  0  0  0  0  0  0  0
   -0.1481    1.9866   -0.3063 C   0  0  0  0  0  0  0  0  0  0  0  0
   -0.7403    2.8637   -0.9410 O   0  0  0  0  0  0  0  0  0  0  0  0
    0.2641    0.7685   -1.0433 C   0  0  0  0  0  0  0  0  0  0  0  0
   -0.7680    0.0863   -1.7115 C   0  0  0  0  0  0  0  0  0  0  0  0
   -0.4992   -1.0836   -2.4192 C   0  0  0  0  0  0  0  0  0  0  0  0
    0.8025   -1.5708   -2.4753 C   0  0  0  0  0  0  0  0  0  0  0  0
    1.8367   -0.8792   -1.8389 C   0  0  0  0  0  0  0  0  0  0  0  0
    1.5843    0.3023   -1.1234 C   0  0  0  0  0  0  0  0  0  0  0  0
    2.9959    1.1476   -0.4358 S   0  0  0  0  0  0  0  0  0  0  0  0
   -1.4399    3.4392    1.3561 H   0  0  0  0  0  0  0  0  0  0  0  0
   -0.0181    4.1286    1.1141 H   0  0  0  0  0  0  0  0  0  0  0  0
    1.1667    2.1465    1.4197 H   0  0  0  0  0  0  0  0  0  0  0  0
   -1.5735    0.7453    1.5829 H   0  0  0  0  0  0  0  0  0  0  0  0
   -0.7747    1.2860    3.0450 H   0  0  0  0  0  0  0  0  0  0  0  0
   -1.2001   -1.5369    1.0339 H   0  0  0  0  0  0  0  0  0  0  0  0
    0.1527   -3.5903    1.1763 H   0  0  0  0  0  0  0  0  0  0  0  0
    2.3402   -3.5712    2.3450 H   0  0  0  0  0  0  0  0  0  0  0  0
    3.1670   -1.4786    3.3908 H   0  0  0  0  0  0  0  0  0  0  0  0
    1.8291    0.5902    3.2565 H   0  0  0  0  0  0  0  0  0  0  0  0
   -1.7864    0.4700   -1.6793 H   0  0  0  0  0  0  0  0  0  0  0  0
   -1.3023   -1.6090   -2.9304 H   0  0  0  0  0  0  0  0  0  0  0  0
    1.0198   -2.4809   -3.0297 H   0  0  0  0  0  0  0  0  0  0  0  0
    2.8499   -1.2682   -1.9233 H   0  0  0  0  0  0  0  0  0  0  0  0
    3.3811    0.1430    0.3671 H   0  0  0  0  0  0  0  0  0  0  0  0
  1  2  1  0
  2  3  1  0
  3  4  1  0
  4  5  2  0
  5  6  1  0
  6  7  2  0
  7  8  1  0
  8  9  2  0
  2 10  1  0
 10 11  2  0
 10 12  1  0
 12 13  2  0
 13 14  1  0
 14 15  2  0
 15 16  1  0
 16 17  2  0
 17 18  1  0
  9  4  1  0
 17 12  1  0
  1 19  1  0
  1 20  1  0
  2 21  1  6
  3 22  1  0
  3 23  1  0
  5 24  1  0
  6 25  1  0
  7 26  1  0
  8 27  1  0
  9 28  1  0
 13 29  1  0
 14 30  1  0
 15 31  1  0
 16 32  1  0
 18 33  1  0
M  END
