
     RDKit          3D

 26 26  0  0  0  0  0  0  0  0999 V2000
    1.7282    2.8708    1.2543 C   0  0  0  0  0  0  0  0  0  0  0  0
    2.2824    1.4989    0.8645 C   0  0  1  0  0  0  0  0  0  0  0  0
    3.6802    1.4007    1.3107 N   0  0  0  0  0  0  0  0  0  0  0  0
    1.4644    0.3398    1.4719 C   0  0  0  0  0  0  0  0  0  0  0  0
    0.0559    0.2420    0.9319 C   0  0  0  0  0  0  0  0  0  0  0  0
   -0.1726   -0.2215   -0.3724 C   0  0  0  0  0  0  0  0  0  0  0  0
   -1.4719   -0.3014   -0.8910 C   0  0  0  0  0  0  0  0  0  0  0  0
   -1.7048   -0.8310   -2.2749 C   0  0  0  0  0  0  0  0  0  0  0  0
   -2.5521    0.0637   -0.0804 C   0  0  0  0  0  0  0  0  0  0  0  0
   -2.3355    0.5233    1.2185 C   0  0  0  0  0  0  0  0  0  0  0  0
   -1.0383    0.6138    1.7225 C   0  0  0  0  0  0  0  0  0  0  0  0
    2.3528    3.6752    0.8495 H   0  0  0  0  0  0  0  0  0  0  0  0
    1.6855    2.9923    2.3424 H   0  0  0  0  0  0  0  0  0  0  0  0
    0.7188    3.0170    0.8568 H   0  0  0  0  0  0  0  0  0  0  0  0
    2.2784    1.4186   -0.2289 H   0  0  0  0  0  0  0  0  0  0  0  0
    3.7275    1.5269    2.3215 H   0  0  0  0  0  0  0  0  0  0  0  0
    4.2181    2.1679    0.9082 H   0  0  0  0  0  0  0  0  0  0  0  0
    1.9663   -0.6164    1.2686 H   0  0  0  0  0  0  0  0  0  0  0  0
    1.4369    0.4312    2.5661 H   0  0  0  0  0  0  0  0  0  0  0  0
    0.6716   -0.5256   -0.9892 H   0  0  0  0  0  0  0  0  0  0  0  0
   -1.8162   -1.9192   -2.2451 H   0  0  0  0  0  0  0  0  0  0  0  0
   -2.6082   -0.3946   -2.7138 H   0  0  0  0  0  0  0  0  0  0  0  0
   -0.8688   -0.5780   -2.9354 H   0  0  0  0  0  0  0  0  0  0  0  0
   -3.5701   -0.0091   -0.4560 H   0  0  0  0  0  0  0  0  0  0  0  0
   -3.1801    0.8080    1.8403 H   0  0  0  0  0  0  0  0  0  0  0  0
   -0.8880    0.9742    2.7373 H   0  0  0  0  0  0  0  0  0  0  0  0
  1  2  1  0
  2  3  1  0
  2  4  1  0
  4  5  1  0
  5  6  2  0
  6  7  1  0
  7  8  1  0
  7  9  2  0
  9 10  1  0
 10 11  2  0
 11  5  1  0
  1 12  1  0
  1 13  1  0
  1 14  1  0
  2 15  1  6
  3 16  1  0
  3 17  1  0
  4 18  1  0
  4 19  1  0
  6 20  1  0
  8 21  1  0
  8 22  1  0
  8 23  1  0
  9 24  1  0
 10 25  1  0
 11 26  1  0
M  END
