
     RDKit          3D

 24 24  0  0  0  0  0  0  0  0999 V2000
    2.2653    0.8716    0.7711 C   0  0  2  0  0  0  0  0  0  0  0  0
    1.6294    2.1813    0.4604 N   0  0  0  0  0  0  0  0  0  0  0  0
    1.9421   -0.2142   -0.2715 C   0  0  0  0  0  0  0  0  0  0  0  0
    0.4873   -0.6234   -0.3542 C   0  0  0  0  0  0  0  0  0  0  0  0
    0.0207   -1.7296    0.3704 C   0  0  0  0  0  0  0  0  0  0  0  0
   -1.3224   -2.1038    0.3066 C   0  0  0  0  0  0  0  0  0  0  0  0
   -2.2128   -1.3769   -0.4808 C   0  0  0  0  0  0  0  0  0  0  0  0
   -1.7610   -0.2747   -1.2037 C   0  0  0  0  0  0  0  0  0  0  0  0
   -0.4180    0.1009   -1.1408 C   0  0  0  0  0  0  0  0  0  0  0  0
    1.8791    0.3944    2.1840 C   0  0  0  0  0  0  0  0  0  0  0  0
    0.8288    1.0598    2.7544 N   0  0  0  0  0  0  0  0  0  0  0  0
    2.4468   -0.5230    2.7680 O   0  0  0  0  0  0  0  0  0  0  0  0
    3.3495    1.0385    0.7844 H   0  0  0  0  0  0  0  0  0  0  0  0
    1.9896    2.5115   -0.4340 H   0  0  0  0  0  0  0  0  0  0  0  0
    1.9481    2.8546    1.1596 H   0  0  0  0  0  0  0  0  0  0  0  0
    2.5437   -1.1080   -0.0570 H   0  0  0  0  0  0  0  0  0  0  0  0
    2.2706    0.1202   -1.2648 H   0  0  0  0  0  0  0  0  0  0  0  0
    0.7018   -2.3055    0.9951 H   0  0  0  0  0  0  0  0  0  0  0  0
   -1.6725   -2.9630    0.8726 H   0  0  0  0  0  0  0  0  0  0  0  0
   -3.2582   -1.6691   -0.5306 H   0  0  0  0  0  0  0  0  0  0  0  0
   -2.4547    0.2946   -1.8167 H   0  0  0  0  0  0  0  0  0  0  0  0
   -0.0826    0.9675   -1.7055 H   0  0  0  0  0  0  0  0  0  0  0  0
    0.4280    0.6474    3.5847 H   0  0  0  0  0  0  0  0  0  0  0  0
    0.2090    1.5408    2.1085 H   0  0  0  0  0  0  0  0  0  0  0  0
  1  2  1  0
  1  3  1  0
  3  4  1  0
  4  5  2  0
  5  6  1  0
  6  7  2  0
  7  8  1  0
  8  9  2  0
  1 10  1  0
 10 11  1  0
 10 12  2  0
  9  4  1  0
  1 13  1  1
  2 14  1  0
  2 15  1  0
  3 16  1  0
  3 17  1  0
  5 18  1  0
  6 19  1  0
  7 20  1  0
  8 21  1  0
  9 22  1  0
 11 23  1  0
 11 24  1  0
M  END
