
     RDKit          3D

 20 19  0  0  0  0  0  0  0  0999 V2000
    0.0678   -0.1175   -1.8682 C   0  0  0  0  0  0  0  0  0  0  0  0
    0.5337    0.6952   -0.6672 C   0  0  0  0  0  0  0  0  0  0  0  0
    0.6933   -0.1418    0.6240 C   0  0  2  0  0  0  0  0  0  0  0  0
   -0.6539   -0.7113    1.0942 C   0  0  0  0  0  0  0  0  0  0  0  0
    1.4294    0.6784    1.7248 C   0  0  2  0  0  0  0  0  0  0  0  0
    1.7988   -0.1701    2.8739 N   0  0  0  0  0  0  0  0  0  0  0  0
    0.6504    1.8690    2.1539 C   0  0  0  0  0  0  0  0  0  0  0  0
    0.0225    2.7909    2.4784 N   0  0  0  0  0  0  0  0  0  0  0  0
    0.0835    0.5045   -2.7692 H   0  0  0  0  0  0  0  0  0  0  0  0
   -0.9559   -0.4795   -1.7374 H   0  0  0  0  0  0  0  0  0  0  0  0
    0.7227   -0.9774   -2.0400 H   0  0  0  0  0  0  0  0  0  0  0  0
   -0.1713    1.5193   -0.5062 H   0  0  0  0  0  0  0  0  0  0  0  0
    1.4997    1.1485   -0.9223 H   0  0  0  0  0  0  0  0  0  0  0  0
    1.3360   -0.9986    0.3747 H   0  0  0  0  0  0  0  0  0  0  0  0
   -0.5462   -1.2952    2.0132 H   0  0  0  0  0  0  0  0  0  0  0  0
   -1.3847    0.0828    1.2782 H   0  0  0  0  0  0  0  0  0  0  0  0
   -1.0777   -1.3869    0.3447 H   0  0  0  0  0  0  0  0  0  0  0  0
    2.3743    1.0393    1.2991 H   0  0  0  0  0  0  0  0  0  0  0  0
    0.9600   -0.4387    3.3881 H   0  0  0  0  0  0  0  0  0  0  0  0
    2.2219   -1.0345    2.5407 H   0  0  0  0  0  0  0  0  0  0  0  0
  1  2  1  0
  2  3  1  0
  3  4  1  0
  3  5  1  0
  5  6  1  0
  5  7  1  0
  7  8  3  0
  1  9  1  0
  1 10  1  0
  1 11  1  0
  2 12  1  0
  2 13  1  0
  3 14  1  6
  4 15  1  0
  4 16  1  0
  4 17  1  0
  5 18  1  6
  6 19  1  0
  6 20  1  0
M  END
