
     RDKit          3D

 22 21  0  0  0  0  0  0  0  0999 V2000
   -1.4845   -1.6088   -0.1620 C   0  0  0  0  0  0  0  0  0  0  0  0
   -1.3597   -0.3995   -1.1098 C   0  0  0  0  0  0  0  0  0  0  0  0
   -2.0372    0.8146   -0.4388 C   0  0  0  0  0  0  0  0  0  0  0  0
   -2.1532   -0.7106   -2.3999 C   0  0  0  0  0  0  0  0  0  0  0  0
    0.1369   -0.0705   -1.4564 C   0  0  2  0  0  0  0  0  0  0  0  0
    0.7830   -1.1977   -2.1588 N   0  0  0  0  0  0  0  0  0  0  0  0
    0.9869    0.3355   -0.2287 C   0  0  0  0  0  0  0  0  0  0  0  0
    2.6346    0.8463   -0.7198 Cl  0  0  0  0  0  0  0  0  0  0  0  0
   -1.0388   -2.5106   -0.5948 H   0  0  0  0  0  0  0  0  0  0  0  0
   -0.9979   -1.4203    0.8003 H   0  0  0  0  0  0  0  0  0  0  0  0
   -2.5368   -1.8345    0.0473 H   0  0  0  0  0  0  0  0  0  0  0  0
   -3.1127    0.6454   -0.3089 H   0  0  0  0  0  0  0  0  0  0  0  0
   -1.6276    1.0139    0.5565 H   0  0  0  0  0  0  0  0  0  0  0  0
   -1.9156    1.7189   -1.0453 H   0  0  0  0  0  0  0  0  0  0  0  0
   -2.0606    0.1053   -3.1253 H   0  0  0  0  0  0  0  0  0  0  0  0
   -1.8090   -1.6326   -2.8801 H   0  0  0  0  0  0  0  0  0  0  0  0
   -3.2202   -0.8432   -2.1857 H   0  0  0  0  0  0  0  0  0  0  0  0
    0.1385    0.7811   -2.1509 H   0  0  0  0  0  0  0  0  0  0  0  0
    1.7712   -0.9718   -2.2986 H   0  0  0  0  0  0  0  0  0  0  0  0
    0.3883   -1.2930   -3.0936 H   0  0  0  0  0  0  0  0  0  0  0  0
    0.5551    1.1885    0.2988 H   0  0  0  0  0  0  0  0  0  0  0  0
    1.1067   -0.4913    0.4773 H   0  0  0  0  0  0  0  0  0  0  0  0
  1  2  1  0
  2  3  1  0
  2  4  1  0
  2  5  1  0
  5  6  1  0
  5  7  1  0
  7  8  1  0
  1  9  1  0
  1 10  1  0
  1 11  1  0
  3 12  1  0
  3 13  1  0
  3 14  1  0
  4 15  1  0
  4 16  1  0
  4 17  1  0
  5 18  1  6
  6 19  1  0
  6 20  1  0
  7 21  1  0
  7 22  1  0
M  END
