
     RDKit          3D

 27 27  0  0  0  0  0  0  0  0999 V2000
   -2.2187   -0.8247    0.1912 C   0  0  0  0  0  0  0  0  0  0  0  0
   -0.9635   -1.2526    0.9494 C   0  0  1  0  0  0  0  0  0  0  0  0
   -1.2578   -2.4968    1.6743 N   0  0  0  0  0  0  0  0  0  0  0  0
    0.2553   -1.4683    0.0253 C   0  0  0  0  0  0  0  0  0  0  0  0
    0.7222   -0.2253   -0.7043 C   0  0  0  0  0  0  0  0  0  0  0  0
    1.4830    0.7033   -0.0948 C   0  0  0  0  0  0  0  0  0  0  0  0
    1.9607    1.9607   -0.7612 C   0  0  0  0  0  0  0  0  0  0  0  0
    1.2524    2.2451   -2.0854 C   0  0  0  0  0  0  0  0  0  0  0  0
    1.1166    0.9745   -2.9156 C   0  0  0  0  0  0  0  0  0  0  0  0
    0.3318   -0.1020   -2.1600 C   0  0  0  0  0  0  0  0  0  0  0  0
   -2.0887    0.1642   -0.2591 H   0  0  0  0  0  0  0  0  0  0  0  0
   -2.4687   -1.5343   -0.6053 H   0  0  0  0  0  0  0  0  0  0  0  0
   -3.0811   -0.7556    0.8643 H   0  0  0  0  0  0  0  0  0  0  0  0
   -0.7243   -0.4804    1.6908 H   0  0  0  0  0  0  0  0  0  0  0  0
   -0.4534   -2.7550    2.2449 H   0  0  0  0  0  0  0  0  0  0  0  0
   -2.0278   -2.3376    2.3231 H   0  0  0  0  0  0  0  0  0  0  0  0
    1.0950   -1.8480    0.6249 H   0  0  0  0  0  0  0  0  0  0  0  0
    0.0395   -2.2629   -0.7014 H   0  0  0  0  0  0  0  0  0  0  0  0
    1.7807    0.5670    0.9426 H   0  0  0  0  0  0  0  0  0  0  0  0
    1.8090    2.8104   -0.0858 H   0  0  0  0  0  0  0  0  0  0  0  0
    3.0407    1.8729   -0.9296 H   0  0  0  0  0  0  0  0  0  0  0  0
    0.2553    2.6595   -1.8886 H   0  0  0  0  0  0  0  0  0  0  0  0
    1.8080    3.0054   -2.6457 H   0  0  0  0  0  0  0  0  0  0  0  0
    0.6165    1.1962   -3.8652 H   0  0  0  0  0  0  0  0  0  0  0  0
    2.1157    0.5939   -3.1640 H   0  0  0  0  0  0  0  0  0  0  0  0
   -0.7385    0.1250   -2.2217 H   0  0  0  0  0  0  0  0  0  0  0  0
    0.4871   -1.0594   -2.6715 H   0  0  0  0  0  0  0  0  0  0  0  0
  1  2  1  0
  2  3  1  0
  2  4  1  0
  4  5  1  0
  5  6  2  0
  6  7  1  0
  7  8  1  0
  8  9  1  0
  9 10  1  0
 10  5  1  0
  1 11  1  0
  1 12  1  0
  1 13  1  0
  2 14  1  1
  3 15  1  0
  3 16  1  0
  4 17  1  0
  4 18  1  0
  6 19  1  0
  7 20  1  0
  7 21  1  0
  8 22  1  0
  8 23  1  0
  9 24  1  0
  9 25  1  0
 10 26  1  0
 10 27  1  0
M  END
