
     RDKit          3D

 31 31  0  0  0  0  0  0  0  0999 V2000
    1.8462   -1.5716   -2.3000 C   0  0  0  0  0  0  0  0  0  0  0  0
    1.8102   -0.6429   -1.0947 C   0  0  0  0  0  0  0  0  0  0  0  0
    0.9495    0.5944   -1.3731 C   0  0  0  0  0  0  0  0  0  0  0  0
    0.9108    1.6420   -0.2390 C   0  0  2  0  0  0  0  0  0  0  0  0
    2.2575    2.2015   -0.0348 N   0  0  0  0  0  0  0  0  0  0  0  0
    0.3922    1.0999    1.1017 C   0  0  0  0  0  0  0  0  0  0  0  0
   -1.0644    0.6735    1.0359 C   0  0  0  0  0  0  0  0  0  0  0  0
   -1.8295    1.0851    0.1653 O   0  0  0  0  0  0  0  0  0  0  0  0
   -1.5894   -0.2514    2.0849 C   0  0  0  0  0  0  0  0  0  0  0  0
   -0.8900   -0.5145    3.2692 C   0  0  0  0  0  0  0  0  0  0  0  0
   -1.4254   -1.3879    4.2203 C   0  0  0  0  0  0  0  0  0  0  0  0
   -2.6593   -1.9975    3.9969 C   0  0  0  0  0  0  0  0  0  0  0  0
   -3.3645   -1.7339    2.8244 C   0  0  0  0  0  0  0  0  0  0  0  0
   -2.8332   -0.8622    1.8722 C   0  0  0  0  0  0  0  0  0  0  0  0
    0.8400   -1.9146   -2.5611 H   0  0  0  0  0  0  0  0  0  0  0  0
    2.4591   -2.4518   -2.0816 H   0  0  0  0  0  0  0  0  0  0  0  0
    2.2752   -1.0671   -3.1716 H   0  0  0  0  0  0  0  0  0  0  0  0
    1.4102   -1.1999   -0.2409 H   0  0  0  0  0  0  0  0  0  0  0  0
    2.8354   -0.3494   -0.8446 H   0  0  0  0  0  0  0  0  0  0  0  0
    1.3155    1.0824   -2.2869 H   0  0  0  0  0  0  0  0  0  0  0  0
   -0.0724    0.2688   -1.6021 H   0  0  0  0  0  0  0  0  0  0  0  0
    0.2623    2.4630   -0.5699 H   0  0  0  0  0  0  0  0  0  0  0  0
    2.6096    2.5574   -0.9240 H   0  0  0  0  0  0  0  0  0  0  0  0
    2.1973    3.0111    0.5825 H   0  0  0  0  0  0  0  0  0  0  0  0
    0.4557    1.8854    1.8658 H   0  0  0  0  0  0  0  0  0  0  0  0
    1.0137    0.2601    1.4284 H   0  0  0  0  0  0  0  0  0  0  0  0
    0.0665   -0.0465    3.4827 H   0  0  0  0  0  0  0  0  0  0  0  0
   -0.8804   -1.5907    5.1393 H   0  0  0  0  0  0  0  0  0  0  0  0
   -3.0737   -2.6756    4.7391 H   0  0  0  0  0  0  0  0  0  0  0  0
   -4.3290   -2.2046    2.6502 H   0  0  0  0  0  0  0  0  0  0  0  0
   -3.3943   -0.6621    0.9610 H   0  0  0  0  0  0  0  0  0  0  0  0
  1  2  1  0
  2  3  1  0
  3  4  1  0
  4  5  1  0
  4  6  1  0
  6  7  1  0
  7  8  2  0
  7  9  1  0
  9 10  2  0
 10 11  1  0
 11 12  2  0
 12 13  1  0
 13 14  2  0
 14  9  1  0
  1 15  1  0
  1 16  1  0
  1 17  1  0
  2 18  1  0
  2 19  1  0
  3 20  1  0
  3 21  1  0
  4 22  1  6
  5 23  1  0
  5 24  1  0
  6 25  1  0
  6 26  1  0
 10 27  1  0
 11 28  1  0
 12 29  1  0
 13 30  1  0
 14 31  1  0
M  END
