
     RDKit          3D

 30 30  0  0  0  0  0  0  0  0999 V2000
   -1.9854    1.1526    2.0915 C   0  0  0  0  0  0  0  0  0  0  0  0
   -1.9466    1.2097    0.5887 C   0  0  0  0  0  0  0  0  0  0  0  0
   -2.9808    1.8646   -0.1004 C   0  0  0  0  0  0  0  0  0  0  0  0
   -2.9775    1.9373   -1.4939 C   0  0  0  0  0  0  0  0  0  0  0  0
   -1.9430    1.3538   -2.2184 C   0  0  0  0  0  0  0  0  0  0  0  0
   -0.9096    0.6986   -1.5488 C   0  0  0  0  0  0  0  0  0  0  0  0
   -0.8980    0.6243   -0.1470 C   0  0  0  0  0  0  0  0  0  0  0  0
    0.2001   -0.0888    0.5174 C   0  0  0  0  0  0  0  0  0  0  0  0
    1.4743    0.3237    0.4303 C   0  0  0  0  0  0  0  0  0  0  0  0
    2.6232   -0.3855    1.0934 C   0  0  0  0  0  0  0  0  0  0  0  0
    3.6817   -0.9705    0.1289 C   0  0  2  0  0  0  0  0  0  0  0  0
    4.3404    0.1139   -0.6587 N   0  0  0  0  0  0  0  0  0  0  0  0
    3.0875   -2.1364   -0.7076 C   0  0  0  0  0  0  0  0  0  0  0  0
    2.1673   -1.7031   -1.5990 F   0  0  0  0  0  0  0  0  0  0  0  0
    2.4947   -3.0567    0.0879 F   0  0  0  0  0  0  0  0  0  0  0  0
    4.0540   -2.7773   -1.4063 F   0  0  0  0  0  0  0  0  0  0  0  0
   -2.0689    0.1151    2.4306 H   0  0  0  0  0  0  0  0  0  0  0  0
   -1.0828    1.6052    2.5148 H   0  0  0  0  0  0  0  0  0  0  0  0
   -2.8444    1.7014    2.4921 H   0  0  0  0  0  0  0  0  0  0  0  0
   -3.8006    2.3246    0.4474 H   0  0  0  0  0  0  0  0  0  0  0  0
   -3.7852    2.4466   -2.0130 H   0  0  0  0  0  0  0  0  0  0  0  0
   -1.9416    1.4027   -3.3039 H   0  0  0  0  0  0  0  0  0  0  0  0
   -0.1147    0.2340   -2.1289 H   0  0  0  0  0  0  0  0  0  0  0  0
   -0.0800   -0.9709    1.0872 H   0  0  0  0  0  0  0  0  0  0  0  0
    1.7075    1.2277   -0.1296 H   0  0  0  0  0  0  0  0  0  0  0  0
    2.2505   -1.1894    1.7415 H   0  0  0  0  0  0  0  0  0  0  0  0
    3.1112    0.3313    1.7672 H   0  0  0  0  0  0  0  0  0  0  0  0
    4.4716   -1.4070    0.7528 H   0  0  0  0  0  0  0  0  0  0  0  0
    3.6925    0.4392   -1.3794 H   0  0  0  0  0  0  0  0  0  0  0  0
    4.5269    0.9145   -0.0559 H   0  0  0  0  0  0  0  0  0  0  0  0
  1  2  1  0
  2  3  2  0
  3  4  1  0
  4  5  2  0
  5  6  1  0
  6  7  2  0
  7  8  1  0
  8  9  2  0
  9 10  1  0
 10 11  1  0
 11 12  1  0
 11 13  1  0
 13 14  1  0
 13 15  1  0
 13 16  1  0
  7  2  1  0
  1 17  1  0
  1 18  1  0
  1 19  1  0
  3 20  1  0
  4 21  1  0
  5 22  1  0
  6 23  1  0
  8 24  1  0
  9 25  1  0
 10 26  1  0
 10 27  1  0
 11 28  1  1
 12 29  1  0
 12 30  1  0
M  END
