
     RDKit          3D

 27 27  0  0  0  0  0  0  0  0999 V2000
   -3.7327    1.1132   -1.1311 N   0  0  0  0  0  0  0  0  0  0  0  0
   -2.6031    0.1446   -0.9657 C   0  0  1  0  0  0  0  0  0  0  0  0
   -1.8272    0.5267    0.3125 C   0  0  0  0  0  0  0  0  0  0  0  0
   -0.5145   -0.1923    0.4798 C   0  0  0  0  0  0  0  0  0  0  0  0
    0.6799    0.3951    0.3034 C   0  0  0  0  0  0  0  0  0  0  0  0
    1.9671   -0.2913    0.4778 C   0  0  0  0  0  0  0  0  0  0  0  0
    2.1630   -1.6217    0.0858 C   0  0  0  0  0  0  0  0  0  0  0  0
    3.4112   -2.2327    0.2406 C   0  0  0  0  0  0  0  0  0  0  0  0
    4.4822   -1.5168    0.7797 C   0  0  0  0  0  0  0  0  0  0  0  0
    5.9958   -2.3330    0.9423 Cl  0  0  0  0  0  0  0  0  0  0  0  0
    4.3019   -0.1834    1.1596 C   0  0  0  0  0  0  0  0  0  0  0  0
    5.5804    0.7701    1.8259 Cl  0  0  0  0  0  0  0  0  0  0  0  0
    3.0507    0.4253    1.0027 C   0  0  0  0  0  0  0  0  0  0  0  0
   -3.0355   -1.3438   -0.9561 C   0  0  0  0  0  0  0  0  0  0  0  0
   -1.9861   -2.1914   -0.9701 F   0  0  0  0  0  0  0  0  0  0  0  0
   -3.7886   -1.6187   -2.0498 F   0  0  0  0  0  0  0  0  0  0  0  0
   -3.7893   -1.6268    0.1309 F   0  0  0  0  0  0  0  0  0  0  0  0
   -4.2554    0.8564   -1.9729 H   0  0  0  0  0  0  0  0  0  0  0  0
   -4.3942    0.9836   -0.3617 H   0  0  0  0  0  0  0  0  0  0  0  0
   -1.9462    0.2909   -1.8320 H   0  0  0  0  0  0  0  0  0  0  0  0
   -2.4428    0.3323    1.2003 H   0  0  0  0  0  0  0  0  0  0  0  0
   -1.6419    1.6099    0.3082 H   0  0  0  0  0  0  0  0  0  0  0  0
   -0.5703   -1.2336    0.7930 H   0  0  0  0  0  0  0  0  0  0  0  0
    0.7358    1.4474    0.0300 H   0  0  0  0  0  0  0  0  0  0  0  0
    1.3503   -2.1968   -0.3539 H   0  0  0  0  0  0  0  0  0  0  0  0
    3.5404   -3.2677   -0.0673 H   0  0  0  0  0  0  0  0  0  0  0  0
    2.9212    1.4636    1.3019 H   0  0  0  0  0  0  0  0  0  0  0  0
  1  2  1  0
  2  3  1  0
  3  4  1  0
  4  5  2  0
  5  6  1  0
  6  7  2  0
  7  8  1  0
  8  9  2  0
  9 10  1  0
  9 11  1  0
 11 12  1  0
 11 13  2  0
  2 14  1  0
 14 15  1  0
 14 16  1  0
 14 17  1  0
 13  6  1  0
  1 18  1  0
  1 19  1  0
  2 20  1  6
  3 21  1  0
  3 22  1  0
  4 23  1  0
  5 24  1  0
  7 25  1  0
  8 26  1  0
 13 27  1  0
M  END
