
     RDKit          3D

 33 34  0  0  0  0  0  0  0  0999 V2000
   -2.6273   -2.5498    2.8588 N   0  0  0  0  0  0  0  0  0  0  0  0
   -3.1710   -3.0081    1.5442 C   0  0  1  0  0  0  0  0  0  0  0  0
   -3.6211   -1.7927    0.7033 C   0  0  0  0  0  0  0  0  0  0  0  0
   -2.5187   -0.8554    0.2802 C   0  0  0  0  0  0  0  0  0  0  0  0
   -2.3497    0.3719    0.7983 C   0  0  0  0  0  0  0  0  0  0  0  0
   -1.2882    1.3030    0.3901 C   0  0  0  0  0  0  0  0  0  0  0  0
   -1.5579    2.6749    0.3921 C   0  0  0  0  0  0  0  0  0  0  0  0
   -0.5679    3.5965    0.0386 C   0  0  0  0  0  0  0  0  0  0  0  0
    0.7192    3.1658   -0.3138 C   0  0  0  0  0  0  0  0  0  0  0  0
    1.7251    4.0783   -0.6712 C   0  0  0  0  0  0  0  0  0  0  0  0
    3.0026    3.6330   -1.0142 C   0  0  0  0  0  0  0  0  0  0  0  0
    3.2904    2.2715   -1.0034 C   0  0  0  0  0  0  0  0  0  0  0  0
    2.3010    1.3523   -0.6504 C   0  0  0  0  0  0  0  0  0  0  0  0
    1.0097    1.7833   -0.3043 C   0  0  0  0  0  0  0  0  0  0  0  0
    0.0020    0.8694    0.0536 C   0  0  0  0  0  0  0  0  0  0  0  0
   -2.2554   -3.9581    0.7321 C   0  0  0  0  0  0  0  0  0  0  0  0
   -1.0752   -3.3825    0.4126 F   0  0  0  0  0  0  0  0  0  0  0  0
   -2.8480   -4.3611   -0.4126 F   0  0  0  0  0  0  0  0  0  0  0  0
   -1.9735   -5.0686    1.4569 F   0  0  0  0  0  0  0  0  0  0  0  0
   -1.8244   -1.9396    2.6835 H   0  0  0  0  0  0  0  0  0  0  0  0
   -2.2469   -3.3586    3.3556 H   0  0  0  0  0  0  0  0  0  0  0  0
   -4.0751   -3.5821    1.7830 H   0  0  0  0  0  0  0  0  0  0  0  0
   -4.3838   -1.2381    1.2670 H   0  0  0  0  0  0  0  0  0  0  0  0
   -4.1287   -2.1475   -0.2028 H   0  0  0  0  0  0  0  0  0  0  0  0
   -1.8606   -1.2090   -0.5114 H   0  0  0  0  0  0  0  0  0  0  0  0
   -3.0308    0.7373    1.5647 H   0  0  0  0  0  0  0  0  0  0  0  0
   -2.5458    3.0424    0.6606 H   0  0  0  0  0  0  0  0  0  0  0  0
   -0.8118    4.6564    0.0421 H   0  0  0  0  0  0  0  0  0  0  0  0
    1.5194    5.1462   -0.6842 H   0  0  0  0  0  0  0  0  0  0  0  0
    3.7719    4.3499   -1.2889 H   0  0  0  0  0  0  0  0  0  0  0  0
    4.2848    1.9230   -1.2698 H   0  0  0  0  0  0  0  0  0  0  0  0
    2.5454    0.2923   -0.6485 H   0  0  0  0  0  0  0  0  0  0  0  0
    0.2363   -0.1927    0.0771 H   0  0  0  0  0  0  0  0  0  0  0  0
  1  2  1  0
  2  3  1  0
  3  4  1  0
  4  5  2  0
  5  6  1  0
  6  7  2  0
  7  8  1  0
  8  9  2  0
  9 10  1  0
 10 11  2  0
 11 12  1  0
 12 13  2  0
 13 14  1  0
 14 15  2  0
  2 16  1  0
 16 17  1  0
 16 18  1  0
 16 19  1  0
 15  6  1  0
 14  9  1  0
  1 20  1  0
  1 21  1  0
  2 22  1  1
  3 23  1  0
  3 24  1  0
  4 25  1  0
  5 26  1  0
  7 27  1  0
  8 28  1  0
 10 29  1  0
 11 30  1  0
 12 31  1  0
 13 32  1  0
 15 33  1  0
M  END
