
     RDKit          3D

 30 30  0  0  0  0  0  0  0  0999 V2000
    1.9414   -1.7298   -1.0792 N   0  0  0  0  0  0  0  0  0  0  0  0
    2.6422   -0.8233   -0.1195 C   0  0  1  0  0  0  0  0  0  0  0  0
    1.9644    0.5654   -0.1060 C   0  0  0  0  0  0  0  0  0  0  0  0
    0.5280    0.5840    0.3546 C   0  0  0  0  0  0  0  0  0  0  0  0
   -0.5054    0.8378   -0.4647 C   0  0  0  0  0  0  0  0  0  0  0  0
   -1.9118    0.8558   -0.0405 C   0  0  0  0  0  0  0  0  0  0  0  0
   -2.8912    0.3908   -0.9288 C   0  0  0  0  0  0  0  0  0  0  0  0
   -4.2536    0.4048   -0.5812 C   0  0  0  0  0  0  0  0  0  0  0  0
   -4.6300    0.9196    0.6672 C   0  0  0  0  0  0  0  0  0  0  0  0
   -3.6650    1.3996    1.5513 C   0  0  0  0  0  0  0  0  0  0  0  0
   -2.3146    1.3712    1.1972 C   0  0  0  0  0  0  0  0  0  0  0  0
   -5.2926   -0.0896   -1.5560 C   0  0  0  0  0  0  0  0  0  0  0  0
   -6.4346   -0.5223   -0.9515 F   0  0  0  0  0  0  0  0  0  0  0  0
   -5.6780    0.8755   -2.4355 F   0  0  0  0  0  0  0  0  0  0  0  0
   -4.8573   -1.1344   -2.3146 F   0  0  0  0  0  0  0  0  0  0  0  0
    2.8339   -1.3781    1.3143 C   0  0  0  0  0  0  0  0  0  0  0  0
    1.6568   -1.6347    1.9251 F   0  0  0  0  0  0  0  0  0  0  0  0
    3.5269   -2.5425    1.2767 F   0  0  0  0  0  0  0  0  0  0  0  0
    3.5287   -0.5179    2.0900 F   0  0  0  0  0  0  0  0  0  0  0  0
    2.3565   -2.6619   -1.0097 H   0  0  0  0  0  0  0  0  0  0  0  0
    0.9731   -1.8446   -0.7677 H   0  0  0  0  0  0  0  0  0  0  0  0
    3.6499   -0.6808   -0.5297 H   0  0  0  0  0  0  0  0  0  0  0  0
    2.0346    0.9970   -1.1139 H   0  0  0  0  0  0  0  0  0  0  0  0
    2.5359    1.2419    0.5422 H   0  0  0  0  0  0  0  0  0  0  0  0
    0.3526    0.3814    1.4093 H   0  0  0  0  0  0  0  0  0  0  0  0
   -0.3271    1.0185   -1.5233 H   0  0  0  0  0  0  0  0  0  0  0  0
   -2.5958    0.0012   -1.9032 H   0  0  0  0  0  0  0  0  0  0  0  0
   -5.6801    0.9517    0.9546 H   0  0  0  0  0  0  0  0  0  0  0  0
   -3.9631    1.8034    2.5160 H   0  0  0  0  0  0  0  0  0  0  0  0
   -1.5826    1.7692    1.8962 H   0  0  0  0  0  0  0  0  0  0  0  0
  1  2  1  0
  2  3  1  0
  3  4  1  0
  4  5  2  0
  5  6  1  0
  6  7  2  0
  7  8  1  0
  8  9  2  0
  9 10  1  0
 10 11  2  0
  8 12  1  0
 12 13  1  0
 12 14  1  0
 12 15  1  0
  2 16  1  0
 16 17  1  0
 16 18  1  0
 16 19  1  0
 11  6  1  0
  1 20  1  0
  1 21  1  0
  2 22  1  6
  3 23  1  0
  3 24  1  0
  4 25  1  0
  5 26  1  0
  7 27  1  0
  9 28  1  0
 10 29  1  0
 11 30  1  0
M  END
