
     RDKit          3D

 30 30  0  0  0  0  0  0  0  0999 V2000
    3.4832   -1.6326    0.7598 N   0  0  0  0  0  0  0  0  0  0  0  0
    2.6478   -0.8952    1.7537 C   0  0  1  0  0  0  0  0  0  0  0  0
    2.3084    0.5246    1.2417 C   0  0  0  0  0  0  0  0  0  0  0  0
    1.4822    0.5754   -0.0157 C   0  0  0  0  0  0  0  0  0  0  0  0
    0.2534    1.1137   -0.0708 C   0  0  0  0  0  0  0  0  0  0  0  0
   -0.5494    1.1663   -1.2979 C   0  0  0  0  0  0  0  0  0  0  0  0
   -0.6943    0.0520   -2.1325 C   0  0  0  0  0  0  0  0  0  0  0  0
   -1.4886    0.1228   -3.2811 C   0  0  0  0  0  0  0  0  0  0  0  0
   -2.1558    1.3103   -3.6150 C   0  0  0  0  0  0  0  0  0  0  0  0
   -2.0285    2.4176   -2.7637 C   0  0  0  0  0  0  0  0  0  0  0  0
   -1.2347    2.3441   -1.6148 C   0  0  0  0  0  0  0  0  0  0  0  0
   -3.0309    1.3812   -4.8422 C   0  0  0  0  0  0  0  0  0  0  0  0
   -4.3188    1.0251   -4.5818 F   0  0  0  0  0  0  0  0  0  0  0  0
   -2.6115    0.5615   -5.8466 F   0  0  0  0  0  0  0  0  0  0  0  0
   -3.0905    2.6299   -5.3847 F   0  0  0  0  0  0  0  0  0  0  0  0
    1.3681   -1.6350    2.2297 C   0  0  0  0  0  0  0  0  0  0  0  0
    1.6786   -2.7930    2.8583 F   0  0  0  0  0  0  0  0  0  0  0  0
    0.5501   -1.9439    1.1979 F   0  0  0  0  0  0  0  0  0  0  0  0
    0.6649   -0.8812    3.1064 F   0  0  0  0  0  0  0  0  0  0  0  0
    2.8901   -1.9310   -0.0169 H   0  0  0  0  0  0  0  0  0  0  0  0
    4.1865   -1.0084    0.3666 H   0  0  0  0  0  0  0  0  0  0  0  0
    3.2818   -0.7690    2.6401 H   0  0  0  0  0  0  0  0  0  0  0  0
    1.8107    1.0815    2.0463 H   0  0  0  0  0  0  0  0  0  0  0  0
    3.2434    1.0664    1.0460 H   0  0  0  0  0  0  0  0  0  0  0  0
    1.9378    0.1718   -0.9177 H   0  0  0  0  0  0  0  0  0  0  0  0
   -0.2032    1.5550    0.8126 H   0  0  0  0  0  0  0  0  0  0  0  0
   -0.2032   -0.8876   -1.8878 H   0  0  0  0  0  0  0  0  0  0  0  0
   -1.5883   -0.7586   -3.9133 H   0  0  0  0  0  0  0  0  0  0  0  0
   -2.5491    3.3468   -2.9916 H   0  0  0  0  0  0  0  0  0  0  0  0
   -1.1512    3.2187   -0.9728 H   0  0  0  0  0  0  0  0  0  0  0  0
  1  2  1  0
  2  3  1  0
  3  4  1  0
  4  5  2  0
  5  6  1  0
  6  7  2  0
  7  8  1  0
  8  9  2  0
  9 10  1  0
 10 11  2  0
  9 12  1  0
 12 13  1  0
 12 14  1  0
 12 15  1  0
  2 16  1  0
 16 17  1  0
 16 18  1  0
 16 19  1  0
 11  6  1  0
  1 20  1  0
  1 21  1  0
  2 22  1  1
  3 23  1  0
  3 24  1  0
  4 25  1  0
  5 26  1  0
  7 27  1  0
  8 28  1  0
 10 29  1  0
 11 30  1  0
M  END
