
     RDKit          3D

 27 27  0  0  0  0  0  0  0  0999 V2000
   -1.1316   -0.7720    4.2819 C   0  0  0  0  0  0  0  0  0  0  0  0
    0.2202   -0.5370    3.6541 C   0  0  0  0  0  0  0  0  0  0  0  0
    1.1662   -0.1235    4.3301 O   0  0  0  0  0  0  0  0  0  0  0  0
    0.3903   -0.8316    2.1594 C   0  0  1  0  0  0  0  0  0  0  0  0
    0.3186   -2.2924    1.9507 N   0  0  0  0  0  0  0  0  0  0  0  0
   -0.6495   -0.0606    1.3295 C   0  0  0  0  0  0  0  0  0  0  0  0
   -0.3454   -0.0613   -0.1505 C   0  0  0  0  0  0  0  0  0  0  0  0
   -1.0194   -0.9294   -1.0166 C   0  0  0  0  0  0  0  0  0  0  0  0
   -0.7255   -0.9356   -2.3836 C   0  0  0  0  0  0  0  0  0  0  0  0
    0.2732   -0.1105   -2.9040 C   0  0  0  0  0  0  0  0  0  0  0  0
    0.4789   -0.0366   -4.2861 N   0  0  0  0  0  0  0  0  0  0  0  0
    0.9029    0.7955   -2.0486 C   0  0  0  0  0  0  0  0  0  0  0  0
    0.6151    0.8078   -0.6803 C   0  0  0  0  0  0  0  0  0  0  0  0
   -1.8381   -0.0132    3.9382 H   0  0  0  0  0  0  0  0  0  0  0  0
   -1.0433   -0.7020    5.3700 H   0  0  0  0  0  0  0  0  0  0  0  0
   -1.4973   -1.7707    4.0328 H   0  0  0  0  0  0  0  0  0  0  0  0
    1.3990   -0.4995    1.8821 H   0  0  0  0  0  0  0  0  0  0  0  0
    0.4822   -2.4813    0.9595 H   0  0  0  0  0  0  0  0  0  0  0  0
    1.1055   -2.7249    2.4394 H   0  0  0  0  0  0  0  0  0  0  0  0
   -0.7037    0.9818    1.6721 H   0  0  0  0  0  0  0  0  0  0  0  0
   -1.6555   -0.4687    1.4959 H   0  0  0  0  0  0  0  0  0  0  0  0
   -1.7877   -1.6000   -0.6375 H   0  0  0  0  0  0  0  0  0  0  0  0
   -1.2871   -1.5945   -3.0404 H   0  0  0  0  0  0  0  0  0  0  0  0
    1.3904    0.3260   -4.5468 H   0  0  0  0  0  0  0  0  0  0  0  0
    0.2460   -0.8906   -4.7825 H   0  0  0  0  0  0  0  0  0  0  0  0
    1.6274    1.5040   -2.4411 H   0  0  0  0  0  0  0  0  0  0  0  0
    1.1371    1.5133   -0.0375 H   0  0  0  0  0  0  0  0  0  0  0  0
  1  2  1  0
  2  3  2  0
  2  4  1  0
  4  5  1  0
  4  6  1  0
  6  7  1  0
  7  8  2  0
  8  9  1  0
  9 10  2  0
 10 11  1  0
 10 12  1  0
 12 13  2  0
 13  7  1  0
  1 14  1  0
  1 15  1  0
  1 16  1  0
  4 17  1  6
  5 18  1  0
  5 19  1  0
  6 20  1  0
  6 21  1  0
  8 22  1  0
  9 23  1  0
 11 24  1  0
 11 25  1  0
 12 26  1  0
 13 27  1  0
M  END
