
     RDKit          3D

 34 35  0  0  0  0  0  0  0  0999 V2000
   -0.6329   -3.3217    3.7572 C   0  0  0  0  0  0  0  0  0  0  0  0
   -1.4928   -2.1193    4.1561 C   0  0  1  0  0  0  0  0  0  0  0  0
   -0.7143   -1.2003    4.9896 N   0  0  0  0  0  0  0  0  0  0  0  0
   -2.1239   -1.4038    2.9734 C   0  0  0  0  0  0  0  0  0  0  0  0
   -3.4261   -1.0611    2.9745 C   0  0  0  0  0  0  0  0  0  0  0  0
   -1.3095   -1.0814    1.7790 C   0  0  0  0  0  0  0  0  0  0  0  0
   -0.1298   -0.3380    1.8819 C   0  0  0  0  0  0  0  0  0  0  0  0
    0.6368   -0.0469    0.7466 C   0  0  0  0  0  0  0  0  0  0  0  0
    0.2475   -0.4906   -0.5260 C   0  0  0  0  0  0  0  0  0  0  0  0
   -0.9361   -1.2370   -0.6243 C   0  0  0  0  0  0  0  0  0  0  0  0
   -1.7028   -1.5291    0.5103 C   0  0  0  0  0  0  0  0  0  0  0  0
    1.0555   -0.1853   -1.7182 C   0  0  0  0  0  0  0  0  0  0  0  0
    0.4807    0.4232   -2.8467 C   0  0  0  0  0  0  0  0  0  0  0  0
    1.2473    0.7134   -3.9788 C   0  0  0  0  0  0  0  0  0  0  0  0
    2.6034    0.3985   -4.0020 C   0  0  0  0  0  0  0  0  0  0  0  0
    3.1934   -0.2052   -2.8945 C   0  0  0  0  0  0  0  0  0  0  0  0
    2.4255   -0.4936   -1.7629 C   0  0  0  0  0  0  0  0  0  0  0  0
   -0.3114   -3.8781    4.6452 H   0  0  0  0  0  0  0  0  0  0  0  0
    0.2703   -3.0248    3.2126 H   0  0  0  0  0  0  0  0  0  0  0  0
   -1.1987   -4.0130    3.1227 H   0  0  0  0  0  0  0  0  0  0  0  0
   -2.2988   -2.5141    4.7896 H   0  0  0  0  0  0  0  0  0  0  0  0
   -1.3339   -0.4615    5.3191 H   0  0  0  0  0  0  0  0  0  0  0  0
   -0.3899   -1.6939    5.8186 H   0  0  0  0  0  0  0  0  0  0  0  0
   -4.0668   -1.2765    3.8237 H   0  0  0  0  0  0  0  0  0  0  0  0
   -3.8849   -0.5384    2.1401 H   0  0  0  0  0  0  0  0  0  0  0  0
    0.2058    0.0321    2.8478 H   0  0  0  0  0  0  0  0  0  0  0  0
    1.5420    0.5448    0.8668 H   0  0  0  0  0  0  0  0  0  0  0  0
   -1.2656   -1.6135   -1.5905 H   0  0  0  0  0  0  0  0  0  0  0  0
   -2.6060   -2.1235    0.3935 H   0  0  0  0  0  0  0  0  0  0  0  0
   -0.5746    0.6886   -2.8448 H   0  0  0  0  0  0  0  0  0  0  0  0
    0.7839    1.1880   -4.8397 H   0  0  0  0  0  0  0  0  0  0  0  0
    3.2001    0.6238   -4.8819 H   0  0  0  0  0  0  0  0  0  0  0  0
    4.2510   -0.4550   -2.9094 H   0  0  0  0  0  0  0  0  0  0  0  0
    2.9038   -0.9756   -0.9124 H   0  0  0  0  0  0  0  0  0  0  0  0
  1  2  1  0
  2  3  1  0
  2  4  1  0
  4  5  2  3
  4  6  1  0
  6  7  2  0
  7  8  1  0
  8  9  2  0
  9 10  1  0
 10 11  2  0
  9 12  1  0
 12 13  2  0
 13 14  1  0
 14 15  2  0
 15 16  1  0
 16 17  2  0
 11  6  1  0
 17 12  1  0
  1 18  1  0
  1 19  1  0
  1 20  1  0
  2 21  1  1
  3 22  1  0
  3 23  1  0
  5 24  1  0
  5 25  1  0
  7 26  1  0
  8 27  1  0
 10 28  1  0
 11 29  1  0
 13 30  1  0
 14 31  1  0
 15 32  1  0
 16 33  1  0
 17 34  1  0
M  END
