
     RDKit          3D

 22 22  0  0  0  0  0  0  0  0999 V2000
   -3.9871   -0.7944    1.1818 C   0  0  0  0  0  1  0  0  0  0  0  0
   -2.8971   -1.2557    0.1898 C   0  0  0  0  0  0  0  0  0  0  0  0
   -3.2070   -0.9761   -0.9577 O   0  0  0  0  0  0  0  0  0  0  0  0
   -1.7062   -2.1033    0.6561 C   0  0  1  0  0  0  0  0  0  0  0  0
   -1.9614   -3.5619    0.4511 N   0  0  0  0  0  0  0  0  0  0  0  0
   -0.4412   -1.6892   -0.1121 C   0  0  0  0  0  0  0  0  0  0  0  0
    0.0178   -0.2940    0.2428 C   0  0  0  0  0  0  0  0  0  0  0  0
    0.7195   -0.0617    1.4339 C   0  0  0  0  0  0  0  0  0  0  0  0
    1.1188    1.2303    1.7779 C   0  0  0  0  0  0  0  0  0  0  0  0
    0.8205    2.3003    0.9369 C   0  0  0  0  0  0  0  0  0  0  0  0
    0.1251    2.0796   -0.2502 C   0  0  0  0  0  0  0  0  0  0  0  0
   -0.2745    0.7886   -0.5977 C   0  0  0  0  0  0  0  0  0  0  0  0
   -1.5600   -1.9415    1.7307 H   0  0  0  0  0  0  0  0  0  0  0  0
   -2.8029   -3.8318    0.9661 H   0  0  0  0  0  0  0  0  0  0  0  0
   -2.1658   -3.7384   -0.5355 H   0  0  0  0  0  0  0  0  0  0  0  0
    0.3802   -2.3833    0.1125 H   0  0  0  0  0  0  0  0  0  0  0  0
   -0.6013   -1.7601   -1.1963 H   0  0  0  0  0  0  0  0  0  0  0  0
    0.9642   -0.8853    2.1019 H   0  0  0  0  0  0  0  0  0  0  0  0
    1.6639    1.4030    2.7024 H   0  0  0  0  0  0  0  0  0  0  0  0
    1.1311    3.3067    1.2057 H   0  0  0  0  0  0  0  0  0  0  0  0
   -0.1069    2.9147   -0.9066 H   0  0  0  0  0  0  0  0  0  0  0  0
   -0.8170    0.6400   -1.5301 H   0  0  0  0  0  0  0  0  0  0  0  0
  1  2  1  0
  2  3  2  0
  2  4  1  0
  4  5  1  0
  4  6  1  0
  6  7  1  0
  7  8  2  0
  8  9  1  0
  9 10  2  0
 10 11  1  0
 11 12  2  0
 12  7  1  0
  4 13  1  1
  5 14  1  0
  5 15  1  0
  6 16  1  0
  6 17  1  0
  8 18  1  0
  9 19  1  0
 10 20  1  0
 11 21  1  0
 12 22  1  0
M  RAD  1   1   2
M  END
