
     RDKit          3D

 26 25  0  0  0  0  0  0  0  0999 V2000
   -2.5904   -2.9614    0.7122 C   0  0  0  0  0  0  0  0  0  0  0  0
   -1.1413   -2.6054    0.3732 C   0  0  0  0  0  0  0  0  0  0  0  0
   -0.5101   -1.8026    1.5078 C   0  0  0  0  0  0  0  0  0  0  0  0
   -1.0142   -1.9173   -1.0021 C   0  0  0  0  0  0  0  0  0  0  0  0
   -1.6451   -0.5194   -1.1289 C   0  0  0  0  0  0  0  0  0  0  0  0
   -0.6476    0.6315   -0.9246 C   0  0  2  0  0  0  0  0  0  0  0  0
   -1.3777    1.9116   -0.7234 N   0  0  0  0  0  0  0  0  0  0  0  0
    0.3054    0.8137   -2.1300 C   0  0  0  0  0  0  0  0  0  0  0  0
    1.0405    1.9691   -2.0712 N   0  0  0  0  0  0  0  0  0  0  0  0
    0.4426    0.0217   -3.0539 O   0  0  0  0  0  0  0  0  0  0  0  0
   -2.6312   -3.5745    1.6192 H   0  0  0  0  0  0  0  0  0  0  0  0
   -3.2021   -2.0717    0.8892 H   0  0  0  0  0  0  0  0  0  0  0  0
   -3.0506   -3.5371   -0.0976 H   0  0  0  0  0  0  0  0  0  0  0  0
   -0.5902   -3.5528    0.2999 H   0  0  0  0  0  0  0  0  0  0  0  0
   -1.0559   -0.8735    1.7002 H   0  0  0  0  0  0  0  0  0  0  0  0
    0.5306   -1.5532    1.2767 H   0  0  0  0  0  0  0  0  0  0  0  0
   -0.5122   -2.3839    2.4365 H   0  0  0  0  0  0  0  0  0  0  0  0
   -1.4937   -2.5703   -1.7437 H   0  0  0  0  0  0  0  0  0  0  0  0
    0.0461   -1.8832   -1.2789 H   0  0  0  0  0  0  0  0  0  0  0  0
   -2.0788   -0.4326   -2.1346 H   0  0  0  0  0  0  0  0  0  0  0  0
   -2.4831   -0.4226   -0.4305 H   0  0  0  0  0  0  0  0  0  0  0  0
   -0.0242    0.4581   -0.0423 H   0  0  0  0  0  0  0  0  0  0  0  0
   -1.9876    1.8084    0.0884 H   0  0  0  0  0  0  0  0  0  0  0  0
   -2.0076    2.0450   -1.5173 H   0  0  0  0  0  0  0  0  0  0  0  0
    0.6334    2.7194   -1.5208 H   0  0  0  0  0  0  0  0  0  0  0  0
    1.5594    2.2138   -2.9026 H   0  0  0  0  0  0  0  0  0  0  0  0
  1  2  1  0
  2  3  1  0
  2  4  1  0
  4  5  1  0
  5  6  1  0
  6  7  1  0
  6  8  1  0
  8  9  1  0
  8 10  2  0
  1 11  1  0
  1 12  1  0
  1 13  1  0
  2 14  1  0
  3 15  1  0
  3 16  1  0
  3 17  1  0
  4 18  1  0
  4 19  1  0
  5 20  1  0
  5 21  1  0
  6 22  1  1
  7 23  1  0
  7 24  1  0
  9 25  1  0
  9 26  1  0
M  END
