
     RDKit          3D

 21 21  0  0  0  0  0  0  0  0999 V2000
   -3.0681    0.5188    0.9099 C   0  0  0  0  0  0  0  0  0  0  0  0
   -2.4382    0.0654   -0.4052 C   0  0  1  0  0  0  0  0  0  0  0  0
   -3.1030    0.7291   -1.5207 N   0  0  0  0  0  0  0  0  0  0  0  0
   -0.9704    0.3846   -0.4332 C   0  0  0  0  0  0  0  0  0  0  0  0
   -0.0079   -0.5449   -0.5639 C   0  0  0  0  0  0  0  0  0  0  0  0
    1.4050   -0.3040   -0.5885 C   0  0  0  0  0  0  0  0  0  0  0  0
    2.3121   -1.3342   -0.7392 C   0  0  0  0  0  0  0  0  0  0  0  0
    3.9347   -0.7878   -0.7368 S   0  0  0  0  0  0  0  0  0  0  0  0
    3.4413    0.8355   -0.5332 C   0  0  0  0  0  0  0  0  0  0  0  0
    2.0694    0.9560   -0.4690 C   0  0  0  0  0  0  0  0  0  0  0  0
   -2.5990    0.0120    1.7609 H   0  0  0  0  0  0  0  0  0  0  0  0
   -2.9600    1.5990    1.0643 H   0  0  0  0  0  0  0  0  0  0  0  0
   -4.1379    0.2820    0.9326 H   0  0  0  0  0  0  0  0  0  0  0  0
   -2.5995   -1.0141   -0.5084 H   0  0  0  0  0  0  0  0  0  0  0  0
   -3.0051    1.7386   -1.4350 H   0  0  0  0  0  0  0  0  0  0  0  0
   -2.6436    0.4638   -2.3908 H   0  0  0  0  0  0  0  0  0  0  0  0
   -0.7060    1.4331   -0.3261 H   0  0  0  0  0  0  0  0  0  0  0  0
   -0.3215   -1.5841   -0.6632 H   0  0  0  0  0  0  0  0  0  0  0  0
    2.1118   -2.3910   -0.8523 H   0  0  0  0  0  0  0  0  0  0  0  0
    4.1785    1.6239   -0.4700 H   0  0  0  0  0  0  0  0  0  0  0  0
    1.5799    1.9129   -0.3410 H   0  0  0  0  0  0  0  0  0  0  0  0
  1  2  1  0
  2  3  1  0
  2  4  1  0
  4  5  2  0
  5  6  1  0
  6  7  2  0
  7  8  1  0
  8  9  1  0
  9 10  2  0
 10  6  1  0
  1 11  1  0
  1 12  1  0
  1 13  1  0
  2 14  1  6
  3 15  1  0
  3 16  1  0
  4 17  1  0
  5 18  1  0
  7 19  1  0
  9 20  1  0
 10 21  1  0
M  END
