
     RDKit          3D

 29 29  0  0  0  0  0  0  0  0999 V2000
    1.7577   -0.7426   -1.1064 C   0  0  0  0  0  0  0  0  0  0  0  0
    0.4367   -0.6280   -1.8665 C   0  0  0  0  0  0  0  0  0  0  0  0
    0.5346   -1.4740   -3.1422 C   0  0  0  0  0  0  0  0  0  0  0  0
    0.3036    0.6739   -2.2726 F   0  0  0  0  0  0  0  0  0  0  0  0
   -0.8399   -1.0140   -1.0546 C   0  0  1  0  0  0  0  0  0  0  0  0
   -0.7537   -2.3445   -0.4173 N   0  0  0  0  0  0  0  0  0  0  0  0
   -1.3595    0.0875   -0.0910 C   0  0  0  0  0  0  0  0  0  0  0  0
   -0.5455    0.4180    1.1358 C   0  0  0  0  0  0  0  0  0  0  0  0
   -0.5886   -0.3973    2.2751 C   0  0  0  0  0  0  0  0  0  0  0  0
    0.1588   -0.0732    3.4090 C   0  0  0  0  0  0  0  0  0  0  0  0
    0.9488    1.0742    3.4207 C   0  0  0  0  0  0  0  0  0  0  0  0
    0.9873    1.9022    2.3013 C   0  0  0  0  0  0  0  0  0  0  0  0
    0.2406    1.5792    1.1672 C   0  0  0  0  0  0  0  0  0  0  0  0
    2.5889   -0.4199   -1.7442 H   0  0  0  0  0  0  0  0  0  0  0  0
    1.9606   -1.7690   -0.7855 H   0  0  0  0  0  0  0  0  0  0  0  0
    1.7888   -0.0948   -0.2315 H   0  0  0  0  0  0  0  0  0  0  0  0
   -0.3644   -1.3532   -3.7563 H   0  0  0  0  0  0  0  0  0  0  0  0
    1.3767   -1.1425   -3.7600 H   0  0  0  0  0  0  0  0  0  0  0  0
    0.6660   -2.5377   -2.9203 H   0  0  0  0  0  0  0  0  0  0  0  0
   -1.6443   -1.1058   -1.7984 H   0  0  0  0  0  0  0  0  0  0  0  0
   -0.0587   -2.3082    0.3303 H   0  0  0  0  0  0  0  0  0  0  0  0
   -1.6398   -2.5533    0.0420 H   0  0  0  0  0  0  0  0  0  0  0  0
   -2.3646   -0.1982    0.2525 H   0  0  0  0  0  0  0  0  0  0  0  0
   -1.5248    1.0074   -0.6682 H   0  0  0  0  0  0  0  0  0  0  0  0
   -1.2156   -1.2851    2.2959 H   0  0  0  0  0  0  0  0  0  0  0  0
    0.1188   -0.7125    4.2872 H   0  0  0  0  0  0  0  0  0  0  0  0
    1.5289    1.3272    4.3042 H   0  0  0  0  0  0  0  0  0  0  0  0
    1.5983    2.8011    2.3099 H   0  0  0  0  0  0  0  0  0  0  0  0
    0.2841    2.2360    0.2999 H   0  0  0  0  0  0  0  0  0  0  0  0
  1  2  1  0
  2  3  1  0
  2  4  1  0
  2  5  1  0
  5  6  1  0
  5  7  1  0
  7  8  1  0
  8  9  2  0
  9 10  1  0
 10 11  2  0
 11 12  1  0
 12 13  2  0
 13  8  1  0
  1 14  1  0
  1 15  1  0
  1 16  1  0
  3 17  1  0
  3 18  1  0
  3 19  1  0
  5 20  1  6
  6 21  1  0
  6 22  1  0
  7 23  1  0
  7 24  1  0
  9 25  1  0
 10 26  1  0
 11 27  1  0
 12 28  1  0
 13 29  1  0
M  END
