
     RDKit          3D

 26 26  0  0  0  0  0  0  0  0999 V2000
    2.1575   -2.6745    1.7827 C   0  0  0  0  0  0  0  0  0  0  0  0
    1.4953   -1.3179    1.5519 C   0  0  2  0  0  0  0  0  0  0  0  0
    0.3479   -1.4798    0.6414 N   0  0  0  0  0  0  0  0  0  0  0  0
    2.5111   -0.2894    1.0141 C   0  0  0  0  0  0  0  0  0  0  0  0
    3.2082    0.8455    2.0433 S   0  0  0  0  0  0  0  0  0  0  0  0
    2.9920   -0.4594   -0.6822 S   0  0  0  0  0  0  0  0  0  0  0  0
    2.4863    1.1502   -1.3563 C   0  0  0  0  0  0  0  0  0  0  0  0
    0.9889    1.3364   -1.3815 C   0  0  0  0  0  0  0  0  0  0  0  0
    0.3604    2.1919   -0.4637 C   0  0  0  0  0  0  0  0  0  0  0  0
   -1.0275    2.3499   -0.4771 C   0  0  0  0  0  0  0  0  0  0  0  0
   -1.7954    1.6568   -1.4099 C   0  0  0  0  0  0  0  0  0  0  0  0
   -3.5042    1.8520   -1.4248 Cl  0  0  0  0  0  0  0  0  0  0  0  0
   -1.1873    0.8073   -2.3307 C   0  0  0  0  0  0  0  0  0  0  0  0
    0.2004    0.6487   -2.3182 C   0  0  0  0  0  0  0  0  0  0  0  0
    3.0151   -2.5794    2.4577 H   0  0  0  0  0  0  0  0  0  0  0  0
    2.5235   -3.1180    0.8500 H   0  0  0  0  0  0  0  0  0  0  0  0
    1.4526   -3.3807    2.2353 H   0  0  0  0  0  0  0  0  0  0  0  0
    1.0969   -0.9647    2.5107 H   0  0  0  0  0  0  0  0  0  0  0  0
    0.6880   -1.7568   -0.2812 H   0  0  0  0  0  0  0  0  0  0  0  0
   -0.1154   -0.5800    0.5062 H   0  0  0  0  0  0  0  0  0  0  0  0
    2.9751    1.9656   -0.8128 H   0  0  0  0  0  0  0  0  0  0  0  0
    2.8624    1.2147   -2.3842 H   0  0  0  0  0  0  0  0  0  0  0  0
    0.9455    2.7462    0.2685 H   0  0  0  0  0  0  0  0  0  0  0  0
   -1.5016    3.0162    0.2392 H   0  0  0  0  0  0  0  0  0  0  0  0
   -1.7859    0.2670   -3.0596 H   0  0  0  0  0  0  0  0  0  0  0  0
    0.6634   -0.0183   -3.0438 H   0  0  0  0  0  0  0  0  0  0  0  0
  1  2  1  0
  2  3  1  0
  2  4  1  0
  4  5  2  0
  4  6  1  0
  6  7  1  0
  7  8  1  0
  8  9  2  0
  9 10  1  0
 10 11  2  0
 11 12  1  0
 11 13  1  0
 13 14  2  0
 14  8  1  0
  1 15  1  0
  1 16  1  0
  1 17  1  0
  2 18  1  1
  3 19  1  0
  3 20  1  0
  7 21  1  0
  7 22  1  0
  9 23  1  0
 10 24  1  0
 13 25  1  0
 14 26  1  0
M  END
