
     RDKit          3D

 30 30  0  0  0  0  0  0  0  0999 V2000
   -2.5311   -1.2256    0.7310 C   0  0  0  0  0  0  0  0  0  0  0  0
   -1.9193   -0.3333   -0.3626 C   0  0  2  0  0  0  0  0  0  0  0  0
   -0.4909   -0.7037   -0.7292 C   0  0  0  0  0  0  0  0  0  0  0  0
    0.3838   -1.3888    0.0264 C   0  0  0  0  0  0  0  0  0  0  0  0
    1.7531   -1.7168   -0.3973 C   0  0  0  0  0  0  0  0  0  0  0  0
    2.3073   -2.9421   -0.0047 C   0  0  0  0  0  0  0  0  0  0  0  0
    3.6158   -3.2788   -0.3609 C   0  0  0  0  0  0  0  0  0  0  0  0
    4.3876   -2.3883   -1.1039 C   0  0  0  0  0  0  0  0  0  0  0  0
    3.8537   -1.1597   -1.4866 C   0  0  0  0  0  0  0  0  0  0  0  0
    2.5449   -0.8230   -1.1308 C   0  0  0  0  0  0  0  0  0  0  0  0
   -2.0933    1.1754   -0.0055 C   0  0  1  0  0  0  0  0  0  0  0  0
   -1.3385    1.5278    1.2378 N   0  0  0  0  0  0  0  0  0  0  0  0
   -1.8055    2.0889   -1.2273 C   0  0  0  0  0  0  0  0  0  0  0  0
   -0.5095    2.0472   -1.6070 F   0  0  0  0  0  0  0  0  0  0  0  0
   -2.0880    3.3795   -0.9210 F   0  0  0  0  0  0  0  0  0  0  0  0
   -2.5652    1.7508   -2.2915 F   0  0  0  0  0  0  0  0  0  0  0  0
   -2.4612   -2.2841    0.4561 H   0  0  0  0  0  0  0  0  0  0  0  0
   -3.5936   -0.9926    0.8635 H   0  0  0  0  0  0  0  0  0  0  0  0
   -2.0406   -1.0944    1.7010 H   0  0  0  0  0  0  0  0  0  0  0  0
   -2.5175   -0.5287   -1.2642 H   0  0  0  0  0  0  0  0  0  0  0  0
   -0.1821   -0.3858   -1.7255 H   0  0  0  0  0  0  0  0  0  0  0  0
    0.1070   -1.7484    1.0142 H   0  0  0  0  0  0  0  0  0  0  0  0
    1.7209   -3.6507    0.5757 H   0  0  0  0  0  0  0  0  0  0  0  0
    4.0312   -4.2360   -0.0569 H   0  0  0  0  0  0  0  0  0  0  0  0
    5.4056   -2.6494   -1.3805 H   0  0  0  0  0  0  0  0  0  0  0  0
    4.4566   -0.4593   -2.0587 H   0  0  0  0  0  0  0  0  0  0  0  0
    2.1570    0.1490   -1.4257 H   0  0  0  0  0  0  0  0  0  0  0  0
   -3.1516    1.3329    0.2400 H   0  0  0  0  0  0  0  0  0  0  0  0
   -1.3898    2.5398    1.3758 H   0  0  0  0  0  0  0  0  0  0  0  0
   -0.3471    1.3272    1.0813 H   0  0  0  0  0  0  0  0  0  0  0  0
  1  2  1  0
  2  3  1  0
  3  4  2  0
  4  5  1  0
  5  6  2  0
  6  7  1  0
  7  8  2  0
  8  9  1  0
  9 10  2  0
  2 11  1  0
 11 12  1  0
 11 13  1  0
 13 14  1  0
 13 15  1  0
 13 16  1  0
 10  5  1  0
  1 17  1  0
  1 18  1  0
  1 19  1  0
  2 20  1  6
  3 21  1  0
  4 22  1  0
  6 23  1  0
  7 24  1  0
  8 25  1  0
  9 26  1  0
 10 27  1  0
 11 28  1  1
 12 29  1  0
 12 30  1  0
M  END
