
     RDKit          3D

 20 20  0  0  0  0  0  0  0  0999 V2000
   -1.9266    0.9431    0.5791 N   0  0  0  0  0  0  0  0  0  0  0  0
   -1.0210    0.0547   -0.2074 C   0  0  1  0  0  0  0  0  0  0  0  0
   -0.6384    0.7869   -1.5064 C   0  0  0  0  0  0  0  0  0  0  0  0
    0.0168   -0.1028   -2.5249 C   0  0  0  0  0  0  0  0  0  0  0  0
    1.5169   -0.1390   -2.6651 C   0  0  0  0  0  0  0  0  0  0  0  0
    0.6819    0.5183   -3.7268 C   0  0  0  0  0  0  0  0  0  0  0  0
    0.2309   -0.4420    0.5644 C   0  0  0  0  0  0  0  0  0  0  0  0
   -0.1401   -0.9498    1.7686 F   0  0  0  0  0  0  0  0  0  0  0  0
    1.1225    0.5447    0.7962 F   0  0  0  0  0  0  0  0  0  0  0  0
    0.8667   -1.4364   -0.0941 F   0  0  0  0  0  0  0  0  0  0  0  0
   -2.8145    1.0453    0.0884 H   0  0  0  0  0  0  0  0  0  0  0  0
   -2.1354    0.4944    1.4737 H   0  0  0  0  0  0  0  0  0  0  0  0
   -1.6085   -0.8366   -0.4611 H   0  0  0  0  0  0  0  0  0  0  0  0
   -1.5469    1.1897   -1.9738 H   0  0  0  0  0  0  0  0  0  0  0  0
   -0.0006    1.6505   -1.2766 H   0  0  0  0  0  0  0  0  0  0  0  0
   -0.5389   -1.0183   -2.6997 H   0  0  0  0  0  0  0  0  0  0  0  0
    2.1204    0.4982   -2.0277 H   0  0  0  0  0  0  0  0  0  0  0  0
    1.9807   -1.0918   -2.8966 H   0  0  0  0  0  0  0  0  0  0  0  0
    0.7207    1.5993   -3.8032 H   0  0  0  0  0  0  0  0  0  0  0  0
    0.5853    0.0121   -4.6809 H   0  0  0  0  0  0  0  0  0  0  0  0
  1  2  1  0
  2  3  1  0
  3  4  1  0
  4  5  1  0
  5  6  1  0
  2  7  1  0
  7  8  1  0
  7  9  1  0
  7 10  1  0
  6  4  1  0
  1 11  1  0
  1 12  1  0
  2 13  1  6
  3 14  1  0
  3 15  1  0
  4 16  1  0
  5 17  1  0
  5 18  1  0
  6 19  1  0
  6 20  1  0
M  END
