
     RDKit          3D

 20 19  0  0  0  0  0  0  0  0999 V2000
   -1.8150    1.8135   -1.0457 C   0  0  0  0  0  0  0  0  0  0  0  0
   -0.8610    2.6293   -0.1927 C   0  0  0  0  0  0  0  0  0  0  0  0
   -0.0384    1.6465    1.1053 S   0  0  0  0  0  0  0  0  0  0  0  0
    0.9074    0.4369    0.1111 C   0  0  0  0  0  0  0  0  0  0  0  0
    1.9757    0.9959   -0.8464 C   0  0  2  0  0  0  0  0  0  0  0  0
    2.4422   -0.1262   -1.7293 N   0  0  0  0  0  0  0  0  0  0  0  0
    3.1183    1.7149   -0.0873 C   0  0  0  0  0  0  0  0  0  0  0  0
    2.7173    2.8461    0.5228 F   0  0  0  0  0  0  0  0  0  0  0  0
    3.6831    0.9038    0.8350 F   0  0  0  0  0  0  0  0  0  0  0  0
    4.0970    2.0630   -0.9628 F   0  0  0  0  0  0  0  0  0  0  0  0
   -1.2869    1.0817   -1.6638 H   0  0  0  0  0  0  0  0  0  0  0  0
   -2.3598    2.4762   -1.7267 H   0  0  0  0  0  0  0  0  0  0  0  0
   -2.5550    1.2881   -0.4331 H   0  0  0  0  0  0  0  0  0  0  0  0
   -0.1115    3.1292   -0.8125 H   0  0  0  0  0  0  0  0  0  0  0  0
   -1.4256    3.4178    0.3161 H   0  0  0  0  0  0  0  0  0  0  0  0
    0.1805   -0.1701   -0.4400 H   0  0  0  0  0  0  0  0  0  0  0  0
    1.3825   -0.2463    0.8257 H   0  0  0  0  0  0  0  0  0  0  0  0
    1.5161    1.7217   -1.5249 H   0  0  0  0  0  0  0  0  0  0  0  0
    2.9269   -0.8187   -1.1518 H   0  0  0  0  0  0  0  0  0  0  0  0
    3.1668    0.2406   -2.3536 H   0  0  0  0  0  0  0  0  0  0  0  0
  1  2  1  0
  2  3  1  0
  3  4  1  0
  4  5  1  0
  5  6  1  0
  5  7  1  0
  7  8  1  0
  7  9  1  0
  7 10  1  0
  1 11  1  0
  1 12  1  0
  1 13  1  0
  2 14  1  0
  2 15  1  0
  4 16  1  0
  4 17  1  0
  5 18  1  6
  6 19  1  0
  6 20  1  0
M  END
