
     RDKit          3D

 31 31  0  0  0  0  0  0  0  0999 V2000
   -0.6342   -1.4314    2.1168 C   0  0  0  0  0  0  0  0  0  0  0  0
   -0.6521   -0.8667    0.6877 C   0  0  2  0  0  0  0  0  0  0  0  0
    0.6565   -1.2337   -0.0642 C   0  0  0  0  0  0  0  0  0  0  0  0
    1.9940   -0.8900    0.6101 C   0  0  0  0  0  0  0  0  0  0  0  0
    2.3433    0.5743    0.6718 C   0  0  0  0  0  0  0  0  0  0  0  0
    2.5351    1.2055    1.9088 C   0  0  0  0  0  0  0  0  0  0  0  0
    2.8644    2.5606    1.9705 C   0  0  0  0  0  0  0  0  0  0  0  0
    3.0138    3.2970    0.7974 C   0  0  0  0  0  0  0  0  0  0  0  0
    2.8389    2.6779   -0.4382 C   0  0  0  0  0  0  0  0  0  0  0  0
    2.5101    1.3228   -0.5015 C   0  0  0  0  0  0  0  0  0  0  0  0
   -1.0078    0.6442    0.6691 C   0  0  2  0  0  0  0  0  0  0  0  0
   -2.2878    0.8805    1.3472 N   0  0  0  0  0  0  0  0  0  0  0  0
   -1.1329    1.1633   -0.7066 C   0  0  0  0  0  0  0  0  0  0  0  0
   -1.2409    1.5956   -1.8224 C   0  0  0  0  0  0  0  0  0  0  0  0
   -1.6342   -1.4116    2.5625 H   0  0  0  0  0  0  0  0  0  0  0  0
    0.0319   -0.8571    2.7685 H   0  0  0  0  0  0  0  0  0  0  0  0
   -0.3027   -2.4753    2.1199 H   0  0  0  0  0  0  0  0  0  0  0  0
   -1.4532   -1.3992    0.1520 H   0  0  0  0  0  0  0  0  0  0  0  0
    0.6317   -0.8274   -1.0817 H   0  0  0  0  0  0  0  0  0  0  0  0
    0.6482   -2.3252   -0.1962 H   0  0  0  0  0  0  0  0  0  0  0  0
    2.7973   -1.3873    0.0492 H   0  0  0  0  0  0  0  0  0  0  0  0
    2.0339   -1.3340    1.6116 H   0  0  0  0  0  0  0  0  0  0  0  0
    2.4223    0.6473    2.8356 H   0  0  0  0  0  0  0  0  0  0  0  0
    3.0043    3.0412    2.9352 H   0  0  0  0  0  0  0  0  0  0  0  0
    3.2697    4.3519    0.8461 H   0  0  0  0  0  0  0  0  0  0  0  0
    2.9592    3.2497   -1.3544 H   0  0  0  0  0  0  0  0  0  0  0  0
    2.3827    0.8552   -1.4751 H   0  0  0  0  0  0  0  0  0  0  0  0
   -0.2512    1.2156    1.2113 H   0  0  0  0  0  0  0  0  0  0  0  0
   -2.4940    1.8776    1.2990 H   0  0  0  0  0  0  0  0  0  0  0  0
   -3.0260    0.4173    0.8193 H   0  0  0  0  0  0  0  0  0  0  0  0
   -1.3340    1.9821   -2.8108 H   0  0  0  0  0  0  0  0  0  0  0  0
  1  2  1  0
  2  3  1  0
  3  4  1  0
  4  5  1  0
  5  6  2  0
  6  7  1  0
  7  8  2  0
  8  9  1  0
  9 10  2  0
  2 11  1  0
 11 12  1  0
 11 13  1  0
 13 14  3  0
 10  5  1  0
  1 15  1  0
  1 16  1  0
  1 17  1  0
  2 18  1  6
  3 19  1  0
  3 20  1  0
  4 21  1  0
  4 22  1  0
  6 23  1  0
  7 24  1  0
  8 25  1  0
  9 26  1  0
 10 27  1  0
 11 28  1  1
 12 29  1  0
 12 30  1  0
 14 31  1  0
M  END
