
     RDKit          3D

 19 18  0  0  0  0  0  0  0  0999 V2000
   -2.9737    1.7770    0.5547 C   0  0  0  0  0  0  0  0  0  0  0  0
   -2.8329    0.0428    0.0661 S   0  0  0  0  0  0  0  0  0  0  0  0
   -1.9753   -0.1616   -1.5057 C   0  0  0  0  0  0  0  0  0  0  0  0
   -0.5323    0.2400   -1.4458 C   0  0  0  0  0  0  0  0  0  0  0  0
    0.1950   -0.6189   -0.4045 C   0  0  2  0  0  0  0  0  0  0  0  0
   -0.4580   -0.3778    0.8657 N   0  0  0  0  0  0  0  0  0  0  0  0
    1.5972   -0.4510   -0.4443 C   0  0  0  0  0  0  0  0  0  0  0  0
    2.3008    0.0923    1.3578 Se  0  0  0  0  0  1  0  0  0  0  0  0
    2.4434   -0.5485   -1.2568 O   0  0  0  0  0  0  0  0  0  0  0  0
   -3.9569    1.9514    1.0258 H   0  0  0  0  0  0  0  0  0  0  0  0
   -2.9084    2.4752   -0.3033 H   0  0  0  0  0  0  0  0  0  0  0  0
   -2.1988    2.0677    1.2952 H   0  0  0  0  0  0  0  0  0  0  0  0
   -2.0232   -1.2331   -1.7867 H   0  0  0  0  0  0  0  0  0  0  0  0
   -2.4643    0.4227   -2.3191 H   0  0  0  0  0  0  0  0  0  0  0  0
   -0.0564    0.0195   -2.4096 H   0  0  0  0  0  0  0  0  0  0  0  0
   -0.3852    1.3108   -1.2258 H   0  0  0  0  0  0  0  0  0  0  0  0
   -0.0620   -1.6690   -0.6766 H   0  0  0  0  0  0  0  0  0  0  0  0
   -0.8014   -1.2168    1.3365 H   0  0  0  0  0  0  0  0  0  0  0  0
   -0.0137    0.3382    1.4447 H   0  0  0  0  0  0  0  0  0  0  0  0
  1  2  1  0
  2  3  1  0
  3  4  1  0
  4  5  1  0
  5  6  1  0
  5  7  1  0
  7  8  1  0
  7  9  2  0
  1 10  1  0
  1 11  1  0
  1 12  1  0
  3 13  1  0
  3 14  1  0
  4 15  1  0
  4 16  1  0
  5 17  1  6
  6 18  1  0
  6 19  1  0
M  RAD  1   8   2
M  END
