
     RDKit          3D

 27 26  0  0  0  0  0  0  0  0999 V2000
    3.9113   -1.4307   -0.5068 C   0  0  0  0  0  0  0  0  0  0  0  0
    2.9517   -0.9827   -1.9760 S   0  0  0  0  0  0  0  0  0  0  0  0
    2.7697    0.8075   -1.6858 C   0  0  0  0  0  0  0  0  0  0  0  0
    1.8717    1.1829   -0.5061 C   0  0  0  0  0  0  0  0  0  0  0  0
    0.4393    0.6180   -0.5347 C   0  0  2  0  0  0  0  0  0  0  0  0
   -0.3066    1.0498   -1.7279 N   0  0  0  0  0  0  0  0  0  0  0  0
   -0.3463    1.0593    0.7185 C   0  0  0  0  0  0  0  0  0  0  0  0
    0.1548    1.7799    1.5856 O   0  0  0  0  0  0  0  0  0  0  0  0
   -1.7862    0.5945    0.8572 C   0  0  0  0  0  0  0  0  0  0  0  0
   -1.9111   -0.9172    0.7967 C   0  0  0  0  0  0  0  0  0  0  0  0
   -3.2555   -1.3426    1.3183 C   0  0  0  0  0  0  0  0  0  0  0  0
   -3.3975   -2.1831    2.2004 O   0  0  0  0  0  0  0  0  0  0  0  0
    3.3109   -1.3078    0.3977 H   0  0  0  0  0  0  0  0  0  0  0  0
    4.2066   -2.4807   -0.5813 H   0  0  0  0  0  0  0  0  0  0  0  0
    4.8158   -0.8209   -0.4387 H   0  0  0  0  0  0  0  0  0  0  0  0
    2.3731    1.2466   -2.6073 H   0  0  0  0  0  0  0  0  0  0  0  0
    3.7665    1.2395   -1.5447 H   0  0  0  0  0  0  0  0  0  0  0  0
    2.3596    0.8763    0.4283 H   0  0  0  0  0  0  0  0  0  0  0  0
    1.8263    2.2799   -0.4581 H   0  0  0  0  0  0  0  0  0  0  0  0
    0.4766   -0.4756   -0.5088 H   0  0  0  0  0  0  0  0  0  0  0  0
   -0.2154    2.0614   -1.8384 H   0  0  0  0  0  0  0  0  0  0  0  0
    0.1266    0.6400   -2.5578 H   0  0  0  0  0  0  0  0  0  0  0  0
   -2.3957    1.0739    0.0836 H   0  0  0  0  0  0  0  0  0  0  0  0
   -2.1616    0.9640    1.8200 H   0  0  0  0  0  0  0  0  0  0  0  0
   -1.1323   -1.4013    1.3963 H   0  0  0  0  0  0  0  0  0  0  0  0
   -1.8197   -1.2790   -0.2325 H   0  0  0  0  0  0  0  0  0  0  0  0
   -4.1312   -0.8844    0.8271 H   0  0  0  0  0  0  0  0  0  0  0  0
  1  2  1  0
  2  3  1  0
  3  4  1  0
  4  5  1  0
  5  6  1  0
  5  7  1  0
  7  8  2  0
  7  9  1  0
  9 10  1  0
 10 11  1  0
 11 12  2  0
  1 13  1  0
  1 14  1  0
  1 15  1  0
  3 16  1  0
  3 17  1  0
  4 18  1  0
  4 19  1  0
  5 20  1  6
  6 21  1  0
  6 22  1  0
  9 23  1  0
  9 24  1  0
 10 25  1  0
 10 26  1  0
 11 27  1  0
M  END
