
     RDKit          3D

 26 25  0  0  0  0  0  0  0  0999 V2000
    1.7027   -0.5614   -0.2091 C   0  0  0  0  0  0  0  0  0  0  0  0
    1.9586    0.3258    1.0067 C   0  0  2  0  0  0  0  0  0  0  0  0
    2.3660   -0.5228    2.1345 N   0  0  0  0  0  0  0  0  0  0  0  0
    0.7386    1.1542    1.4467 C   0  0  0  0  0  0  0  0  0  0  0  0
    0.3157    2.2641    0.4754 C   0  0  0  0  0  0  0  0  0  0  0  0
   -0.5149    1.8014   -0.6898 C   0  0  0  0  0  0  0  0  0  0  0  0
   -1.8454    1.5883   -0.7034 C   0  0  0  0  0  0  0  0  0  0  0  0
   -2.7513    1.7459    0.4869 C   0  0  0  0  0  0  0  0  0  0  0  0
   -2.5441    1.1520   -1.9641 C   0  0  0  0  0  0  0  0  0  0  0  0
    2.5474   -1.2367   -0.3890 H   0  0  0  0  0  0  0  0  0  0  0  0
    1.5874    0.0358   -1.1171 H   0  0  0  0  0  0  0  0  0  0  0  0
    0.8043   -1.1748   -0.0797 H   0  0  0  0  0  0  0  0  0  0  0  0
    2.7916    1.0024    0.7835 H   0  0  0  0  0  0  0  0  0  0  0  0
    3.1705   -1.0879    1.8650 H   0  0  0  0  0  0  0  0  0  0  0  0
    1.6196   -1.1830    2.3519 H   0  0  0  0  0  0  0  0  0  0  0  0
   -0.1117    0.4938    1.6622 H   0  0  0  0  0  0  0  0  0  0  0  0
    0.9891    1.6461    2.3974 H   0  0  0  0  0  0  0  0  0  0  0  0
    1.2018    2.7862    0.0937 H   0  0  0  0  0  0  0  0  0  0  0  0
   -0.2452    3.0254    1.0319 H   0  0  0  0  0  0  0  0  0  0  0  0
    0.0401    1.6631   -1.6168 H   0  0  0  0  0  0  0  0  0  0  0  0
   -3.2771    0.8060    0.6859 H   0  0  0  0  0  0  0  0  0  0  0  0
   -3.4966    2.5240    0.2921 H   0  0  0  0  0  0  0  0  0  0  0  0
   -2.2193    2.0186    1.4017 H   0  0  0  0  0  0  0  0  0  0  0  0
   -3.0309    0.1831   -1.8118 H   0  0  0  0  0  0  0  0  0  0  0  0
   -3.3067    1.8847   -2.2475 H   0  0  0  0  0  0  0  0  0  0  0  0
   -1.8533    1.0478   -2.8074 H   0  0  0  0  0  0  0  0  0  0  0  0
  1  2  1  0
  2  3  1  0
  2  4  1  0
  4  5  1  0
  5  6  1  0
  6  7  2  3
  7  8  1  0
  7  9  1  0
  1 10  1  0
  1 11  1  0
  1 12  1  0
  2 13  1  6
  3 14  1  0
  3 15  1  0
  4 16  1  0
  4 17  1  0
  5 18  1  0
  5 19  1  0
  6 20  1  0
  8 21  1  0
  8 22  1  0
  8 23  1  0
  9 24  1  0
  9 25  1  0
  9 26  1  0
M  END
