
     RDKit          3D

 36 36  0  0  0  0  0  0  0  0999 V2000
    4.3261    0.6272    1.7009 C   0  0  0  0  0  0  0  0  0  0  0  0
    3.1888    1.2863    0.9362 C   0  0  0  0  0  0  0  0  0  0  0  0
    1.8684    0.5152    1.0137 C   0  0  0  0  0  0  0  0  0  0  0  0
    1.9297   -0.8607    0.3348 C   0  0  0  0  0  0  0  0  0  0  0  0
    0.5678   -1.5854    0.3291 C   0  0  2  0  0  0  0  0  0  0  0  0
    0.7732   -2.9633   -0.1103 N   0  0  0  0  0  0  0  0  0  0  0  0
   -0.5288   -0.9917   -0.5132 C   0  0  0  0  0  0  0  0  0  0  0  0
   -0.3906   -0.1025   -1.5114 C   0  0  0  0  0  0  0  0  0  0  0  0
   -1.7823    0.4913   -2.3661 S   0  0  0  0  0  6  0  0  0  0  0  0
   -1.3550    0.9444   -3.6765 O   0  0  0  0  0  0  0  0  0  0  0  0
   -2.8905   -0.4369   -2.2346 O   0  0  0  0  0  0  0  0  0  0  0  0
   -2.1909    1.9440   -1.4188 C   0  0  0  0  0  0  0  0  0  0  0  0
   -3.1182    1.8513   -0.3765 C   0  0  0  0  0  0  0  0  0  0  0  0
   -3.4391    2.9927    0.3578 C   0  0  0  0  0  0  0  0  0  0  0  0
   -2.8441    4.2162    0.0440 C   0  0  0  0  0  0  0  0  0  0  0  0
   -1.9315    4.3061   -1.0088 C   0  0  0  0  0  0  0  0  0  0  0  0
   -1.6044    3.1700   -1.7486 C   0  0  0  0  0  0  0  0  0  0  0  0
    4.6131   -0.3272    1.2501 H   0  0  0  0  0  0  0  0  0  0  0  0
    5.2087    1.2750    1.6925 H   0  0  0  0  0  0  0  0  0  0  0  0
    4.0471    0.4486    2.7441 H   0  0  0  0  0  0  0  0  0  0  0  0
    3.4818    1.4187   -0.1117 H   0  0  0  0  0  0  0  0  0  0  0  0
    3.0283    2.2895    1.3490 H   0  0  0  0  0  0  0  0  0  0  0  0
    1.0937    1.1332    0.5474 H   0  0  0  0  0  0  0  0  0  0  0  0
    1.5782    0.3914    2.0643 H   0  0  0  0  0  0  0  0  0  0  0  0
    2.3205   -0.7585   -0.6856 H   0  0  0  0  0  0  0  0  0  0  0  0
    2.6514   -1.4832    0.8796 H   0  0  0  0  0  0  0  0  0  0  0  0
    0.2069   -1.6169    1.3648 H   0  0  0  0  0  0  0  0  0  0  0  0
   -0.1086   -3.4730   -0.0907 H   0  0  0  0  0  0  0  0  0  0  0  0
    1.0931   -2.9744   -1.0776 H   0  0  0  0  0  0  0  0  0  0  0  0
   -1.5293   -1.3443   -0.2577 H   0  0  0  0  0  0  0  0  0  0  0  0
    0.5645    0.2820   -1.8381 H   0  0  0  0  0  0  0  0  0  0  0  0
   -3.5954    0.9041   -0.1351 H   0  0  0  0  0  0  0  0  0  0  0  0
   -4.1591    2.9323    1.1706 H   0  0  0  0  0  0  0  0  0  0  0  0
   -3.1007    5.1053    0.6155 H   0  0  0  0  0  0  0  0  0  0  0  0
   -1.4820    5.2649   -1.2566 H   0  0  0  0  0  0  0  0  0  0  0  0
   -0.9036    3.2504   -2.5766 H   0  0  0  0  0  0  0  0  0  0  0  0
  1  2  1  0
  2  3  1  0
  3  4  1  0
  4  5  1  0
  5  6  1  0
  5  7  1  0
  7  8  2  0
  8  9  1  0
  9 10  2  0
  9 11  2  0
  9 12  1  0
 12 13  2  0
 13 14  1  0
 14 15  2  0
 15 16  1  0
 16 17  2  0
 17 12  1  0
  1 18  1  0
  1 19  1  0
  1 20  1  0
  2 21  1  0
  2 22  1  0
  3 23  1  0
  3 24  1  0
  4 25  1  0
  4 26  1  0
  5 27  1  1
  6 28  1  0
  6 29  1  0
  7 30  1  0
  8 31  1  0
 13 32  1  0
 14 33  1  0
 15 34  1  0
 16 35  1  0
 17 36  1  0
M  END
