
     RDKit          3D

 28 28  0  0  0  0  0  0  0  0999 V2000
   -0.1806    2.9542   -2.3226 N   0  0  0  0  0  0  0  0  0  0  0  0
    0.8479    2.0733   -1.7130 C   0  0  1  0  0  0  0  0  0  0  0  0
    0.2060    0.7369   -1.3309 C   0  0  0  0  0  0  0  0  0  0  0  0
    0.9922    0.0195   -0.2465 C   0  0  0  0  0  0  0  0  0  0  0  0
    2.1902    0.2371   -0.0526 O   0  0  0  0  0  0  0  0  0  0  0  0
    0.2827   -1.0027    0.5834 C   0  0  0  0  0  0  0  0  0  0  0  0
   -0.7878   -1.7264    0.0329 C   0  0  0  0  0  0  0  0  0  0  0  0
   -1.4623   -2.6774    0.7991 C   0  0  0  0  0  0  0  0  0  0  0  0
   -1.0809   -2.9024    2.1179 C   0  0  0  0  0  0  0  0  0  0  0  0
   -0.0135   -2.1898    2.6678 C   0  0  0  0  0  0  0  0  0  0  0  0
    0.7128   -1.2685    1.9008 C   0  0  0  0  0  0  0  0  0  0  0  0
    1.6897   -0.4855    2.5471 N   0  0  0  0  0  0  0  0  0  0  0  0
    1.9734    1.8561   -2.7506 C   0  0  0  0  0  0  0  0  0  0  0  0
    3.1814    1.4765   -2.2487 N   0  0  0  0  0  0  0  0  0  0  0  0
    1.8152    2.0132   -3.9592 O   0  0  0  0  0  0  0  0  0  0  0  0
   -0.3850    2.5773   -3.2549 H   0  0  0  0  0  0  0  0  0  0  0  0
    0.2684    3.8489   -2.5323 H   0  0  0  0  0  0  0  0  0  0  0  0
    1.2611    2.5888   -0.8384 H   0  0  0  0  0  0  0  0  0  0  0  0
    0.1311    0.0755   -2.2020 H   0  0  0  0  0  0  0  0  0  0  0  0
   -0.8018    0.9223   -0.9385 H   0  0  0  0  0  0  0  0  0  0  0  0
   -1.1104   -1.5695   -0.9928 H   0  0  0  0  0  0  0  0  0  0  0  0
   -2.2920   -3.2346    0.3708 H   0  0  0  0  0  0  0  0  0  0  0  0
   -1.6186   -3.6269    2.7246 H   0  0  0  0  0  0  0  0  0  0  0  0
    0.2487   -2.3573    3.7098 H   0  0  0  0  0  0  0  0  0  0  0  0
    2.1747   -0.9681    3.2961 H   0  0  0  0  0  0  0  0  0  0  0  0
    2.3441   -0.0711    1.8754 H   0  0  0  0  0  0  0  0  0  0  0  0
    3.2219    1.0391   -1.3270 H   0  0  0  0  0  0  0  0  0  0  0  0
    3.8945    1.2161   -2.9160 H   0  0  0  0  0  0  0  0  0  0  0  0
  1  2  1  0
  2  3  1  0
  3  4  1  0
  4  5  2  0
  4  6  1  0
  6  7  2  0
  7  8  1  0
  8  9  2  0
  9 10  1  0
 10 11  2  0
 11 12  1  0
  2 13  1  0
 13 14  1  0
 13 15  2  0
 11  6  1  0
  1 16  1  0
  1 17  1  0
  2 18  1  1
  3 19  1  0
  3 20  1  0
  7 21  1  0
  8 22  1  0
  9 23  1  0
 10 24  1  0
 12 25  1  0
 12 26  1  0
 14 27  1  0
 14 28  1  0
M  END
