
     RDKit          3D

 36 35  0  0  0  0  0  0  0  0999 V2000
   -2.3145   -0.7811   -1.2769 C   0  0  0  0  0  0  0  0  0  0  0  0
   -0.9715   -1.1031   -1.9331 C   0  0  0  0  0  0  0  0  0  0  0  0
   -0.9510   -2.5706   -2.3724 C   0  0  0  0  0  0  0  0  0  0  0  0
    0.2244   -0.8255   -0.9959 C   0  0  0  0  0  0  0  0  0  0  0  0
    0.3612    0.6238   -0.4800 C   0  0  2  0  0  0  0  0  0  0  0  0
    0.4578    1.5859   -1.5997 N   0  0  0  0  0  0  0  0  0  0  0  0
    1.6158    0.7954    0.4517 C   0  0  1  0  0  0  0  0  0  0  0  0
    1.8804    2.2346    0.6548 N   0  0  0  0  0  0  0  0  0  0  0  0
    1.4445    0.0833    1.8088 C   0  0  0  0  0  0  0  0  0  0  0  0
    2.6243    0.2385    2.7941 C   0  0  0  0  0  0  0  0  0  0  0  0
    3.9289   -0.3304    2.2346 C   0  0  0  0  0  0  0  0  0  0  0  0
    2.2852   -0.4549    4.1171 C   0  0  0  0  0  0  0  0  0  0  0  0
   -2.4350   -1.3231   -0.3328 H   0  0  0  0  0  0  0  0  0  0  0  0
   -3.1448   -1.0603   -1.9346 H   0  0  0  0  0  0  0  0  0  0  0  0
   -2.4117    0.2890   -1.0713 H   0  0  0  0  0  0  0  0  0  0  0  0
   -0.8737   -0.4933   -2.8389 H   0  0  0  0  0  0  0  0  0  0  0  0
   -0.0097   -2.8124   -2.8773 H   0  0  0  0  0  0  0  0  0  0  0  0
   -1.7670   -2.7786   -3.0727 H   0  0  0  0  0  0  0  0  0  0  0  0
   -1.0600   -3.2445   -1.5157 H   0  0  0  0  0  0  0  0  0  0  0  0
    1.1492   -1.1033   -1.5198 H   0  0  0  0  0  0  0  0  0  0  0  0
    0.1446   -1.5048   -0.1390 H   0  0  0  0  0  0  0  0  0  0  0  0
   -0.5290    0.8921    0.1013 H   0  0  0  0  0  0  0  0  0  0  0  0
   -0.3841    1.5331   -2.1710 H   0  0  0  0  0  0  0  0  0  0  0  0
    1.2303    1.3107   -2.2075 H   0  0  0  0  0  0  0  0  0  0  0  0
    2.4848    0.3792   -0.0716 H   0  0  0  0  0  0  0  0  0  0  0  0
    1.1266    2.6253    1.2199 H   0  0  0  0  0  0  0  0  0  0  0  0
    1.7264    2.6682   -0.2650 H   0  0  0  0  0  0  0  0  0  0  0  0
    0.5322    0.4577    2.2931 H   0  0  0  0  0  0  0  0  0  0  0  0
    1.2824   -0.9875    1.6388 H   0  0  0  0  0  0  0  0  0  0  0  0
    2.7779    1.3022    3.0125 H   0  0  0  0  0  0  0  0  0  0  0  0
    4.7282   -0.2755    2.9817 H   0  0  0  0  0  0  0  0  0  0  0  0
    4.2666    0.2323    1.3592 H   0  0  0  0  0  0  0  0  0  0  0  0
    3.8117   -1.3794    1.9425 H   0  0  0  0  0  0  0  0  0  0  0  0
    3.0935   -0.3226    4.8441 H   0  0  0  0  0  0  0  0  0  0  0  0
    2.1300   -1.5298    3.9749 H   0  0  0  0  0  0  0  0  0  0  0  0
    1.3731   -0.0347    4.5539 H   0  0  0  0  0  0  0  0  0  0  0  0
  1  2  1  0
  2  3  1  0
  2  4  1  0
  4  5  1  0
  5  6  1  0
  5  7  1  0
  7  8  1  0
  7  9  1  0
  9 10  1  0
 10 11  1  0
 10 12  1  0
  1 13  1  0
  1 14  1  0
  1 15  1  0
  2 16  1  0
  3 17  1  0
  3 18  1  0
  3 19  1  0
  4 20  1  0
  4 21  1  0
  5 22  1  1
  6 23  1  0
  6 24  1  0
  7 25  1  6
  8 26  1  0
  8 27  1  0
  9 28  1  0
  9 29  1  0
 10 30  1  0
 11 31  1  0
 11 32  1  0
 11 33  1  0
 12 34  1  0
 12 35  1  0
 12 36  1  0
M  END
