
     RDKit          3D

 38 39  0  0  0  0  0  0  0  0999 V2000
   -0.6714    0.9379   -1.7858 N   0  0  0  0  0  0  0  0  0  0  0  0
   -0.5452   -0.1502   -0.7716 C   0  0  1  0  0  0  0  0  0  0  0  0
    0.1754    0.3714    0.4962 C   0  0  0  0  0  0  0  0  0  0  0  0
    1.5668    0.9074    0.2324 C   0  0  0  0  0  0  0  0  0  0  0  0
    1.8282    2.2822    0.3095 C   0  0  0  0  0  0  0  0  0  0  0  0
    3.1093    2.7735    0.0538 C   0  0  0  0  0  0  0  0  0  0  0  0
    4.1403    1.8968   -0.2783 C   0  0  0  0  0  0  0  0  0  0  0  0
    3.8926    0.5275   -0.3525 C   0  0  0  0  0  0  0  0  0  0  0  0
    2.6125    0.0339   -0.0973 C   0  0  0  0  0  0  0  0  0  0  0  0
   -1.9717   -0.7318   -0.4622 C   0  0  1  0  0  0  0  0  0  0  0  0
   -2.7869   -0.7159   -1.7074 N   0  0  0  0  0  0  0  0  0  0  0  0
   -1.9652   -2.1791    0.0839 C   0  0  0  0  0  0  0  0  0  0  0  0
   -1.4844   -2.3469    1.5042 C   0  0  0  0  0  0  0  0  0  0  0  0
   -0.3560   -3.1308    1.7844 C   0  0  0  0  0  0  0  0  0  0  0  0
    0.0894   -3.2862    3.0981 C   0  0  0  0  0  0  0  0  0  0  0  0
   -0.5931   -2.6693    4.1445 C   0  0  0  0  0  0  0  0  0  0  0  0
   -1.7256   -1.9021    3.8798 C   0  0  0  0  0  0  0  0  0  0  0  0
   -2.1725   -1.7449    2.5671 C   0  0  0  0  0  0  0  0  0  0  0  0
    0.2715    1.2511   -2.0311 H   0  0  0  0  0  0  0  0  0  0  0  0
   -1.1079    1.7460   -1.3396 H   0  0  0  0  0  0  0  0  0  0  0  0
    0.0559   -0.9391   -1.2414 H   0  0  0  0  0  0  0  0  0  0  0  0
   -0.4348    1.1495    0.9739 H   0  0  0  0  0  0  0  0  0  0  0  0
    0.2817   -0.4195    1.2414 H   0  0  0  0  0  0  0  0  0  0  0  0
    1.0364    2.9808    0.5702 H   0  0  0  0  0  0  0  0  0  0  0  0
    3.3039    3.8411    0.1162 H   0  0  0  0  0  0  0  0  0  0  0  0
    5.1379    2.2803   -0.4755 H   0  0  0  0  0  0  0  0  0  0  0  0
    4.6976   -0.1569   -0.6068 H   0  0  0  0  0  0  0  0  0  0  0  0
    2.4364   -1.0379   -0.1538 H   0  0  0  0  0  0  0  0  0  0  0  0
   -2.4803   -0.0621    0.2416 H   0  0  0  0  0  0  0  0  0  0  0  0
   -2.5326    0.1645   -2.1773 H   0  0  0  0  0  0  0  0  0  0  0  0
   -2.4073   -1.4146   -2.3476 H   0  0  0  0  0  0  0  0  0  0  0  0
   -1.3759   -2.8180   -0.5875 H   0  0  0  0  0  0  0  0  0  0  0  0
   -2.9859   -2.5865    0.0520 H   0  0  0  0  0  0  0  0  0  0  0  0
    0.1870   -3.6244    0.9816 H   0  0  0  0  0  0  0  0  0  0  0  0
    0.9678   -3.8917    3.3057 H   0  0  0  0  0  0  0  0  0  0  0  0
   -0.2469   -2.7927    5.1673 H   0  0  0  0  0  0  0  0  0  0  0  0
   -2.2650   -1.4300    4.6968 H   0  0  0  0  0  0  0  0  0  0  0  0
   -3.0670   -1.1543    2.3796 H   0  0  0  0  0  0  0  0  0  0  0  0
  1  2  1  0
  2  3  1  0
  3  4  1  0
  4  5  2  0
  5  6  1  0
  6  7  2  0
  7  8  1  0
  8  9  2  0
  2 10  1  0
 10 11  1  0
 10 12  1  0
 12 13  1  0
 13 14  2  0
 14 15  1  0
 15 16  2  0
 16 17  1  0
 17 18  2  0
  9  4  1  0
 18 13  1  0
  1 19  1  0
  1 20  1  0
  2 21  1  6
  3 22  1  0
  3 23  1  0
  5 24  1  0
  6 25  1  0
  7 26  1  0
  8 27  1  0
  9 28  1  0
 10 29  1  1
 11 30  1  0
 11 31  1  0
 12 32  1  0
 12 33  1  0
 14 34  1  0
 15 35  1  0
 16 36  1  0
 17 37  1  0
 18 38  1  0
M  END
