
     RDKit          3D

 44 45  0  0  0  0  0  0  0  0999 V2000
    3.1441   -0.0985   -3.7283 C   0  0  0  0  0  0  0  0  0  0  0  0
    2.0007   -0.6188   -2.9097 C   0  0  0  0  0  0  0  0  0  0  0  0
    1.3382    0.2162   -2.0040 C   0  0  0  0  0  0  0  0  0  0  0  0
    0.2548   -0.2605   -1.2616 C   0  0  0  0  0  0  0  0  0  0  0  0
   -0.1937   -1.5782   -1.4197 C   0  0  0  0  0  0  0  0  0  0  0  0
   -1.3751   -2.0927   -0.6258 C   0  0  0  0  0  0  0  0  0  0  0  0
   -1.0901   -2.2996    0.8811 C   0  0  2  0  0  0  0  0  0  0  0  0
   -0.0883   -3.3769    1.0645 N   0  0  0  0  0  0  0  0  0  0  0  0
   -2.4008   -2.6332    1.6761 C   0  0  1  0  0  0  0  0  0  0  0  0
   -2.0980   -3.1140    3.0445 N   0  0  0  0  0  0  0  0  0  0  0  0
   -3.4470   -1.4889    1.7153 C   0  0  0  0  0  0  0  0  0  0  0  0
   -2.9768   -0.1686    2.2821 C   0  0  0  0  0  0  0  0  0  0  0  0
   -2.6208    0.8875    1.4341 C   0  0  0  0  0  0  0  0  0  0  0  0
   -2.1752    2.1033    1.9591 C   0  0  0  0  0  0  0  0  0  0  0  0
   -2.0959    2.2929    3.3425 C   0  0  0  0  0  0  0  0  0  0  0  0
   -1.5867    3.5863    3.9054 C   0  0  0  0  0  0  0  0  0  0  0  0
   -2.4519    1.2407    4.1922 C   0  0  0  0  0  0  0  0  0  0  0  0
   -2.8968    0.0253    3.6668 C   0  0  0  0  0  0  0  0  0  0  0  0
    0.4640   -2.4086   -2.3351 C   0  0  0  0  0  0  0  0  0  0  0  0
    1.5475   -1.9315   -3.0774 C   0  0  0  0  0  0  0  0  0  0  0  0
    3.8517   -0.9000   -3.9653 H   0  0  0  0  0  0  0  0  0  0  0  0
    2.7702    0.3313   -4.6627 H   0  0  0  0  0  0  0  0  0  0  0  0
    3.6980    0.6715   -3.1811 H   0  0  0  0  0  0  0  0  0  0  0  0
    1.6646    1.2442   -1.8656 H   0  0  0  0  0  0  0  0  0  0  0  0
   -0.2335    0.4064   -0.5561 H   0  0  0  0  0  0  0  0  0  0  0  0
   -1.7359   -3.0326   -1.0651 H   0  0  0  0  0  0  0  0  0  0  0  0
   -2.1903   -1.3754   -0.7708 H   0  0  0  0  0  0  0  0  0  0  0  0
   -0.6408   -1.3893    1.2950 H   0  0  0  0  0  0  0  0  0  0  0  0
    0.2211   -3.3849    2.0332 H   0  0  0  0  0  0  0  0  0  0  0  0
   -0.5152   -4.2807    0.8726 H   0  0  0  0  0  0  0  0  0  0  0  0
   -2.8888   -3.4791    1.1726 H   0  0  0  0  0  0  0  0  0  0  0  0
   -1.5152   -3.9460    2.9782 H   0  0  0  0  0  0  0  0  0  0  0  0
   -1.5237   -2.4088    3.5092 H   0  0  0  0  0  0  0  0  0  0  0  0
   -4.3191   -1.8190    2.2978 H   0  0  0  0  0  0  0  0  0  0  0  0
   -3.8458   -1.3246    0.7065 H   0  0  0  0  0  0  0  0  0  0  0  0
   -2.6892    0.7769    0.3547 H   0  0  0  0  0  0  0  0  0  0  0  0
   -1.8955    2.9048    1.2790 H   0  0  0  0  0  0  0  0  0  0  0  0
   -2.0388    3.7929    4.8811 H   0  0  0  0  0  0  0  0  0  0  0  0
   -1.8383    4.4248    3.2474 H   0  0  0  0  0  0  0  0  0  0  0  0
   -0.4995    3.5413    4.0215 H   0  0  0  0  0  0  0  0  0  0  0  0
   -2.3911    1.3613    5.2714 H   0  0  0  0  0  0  0  0  0  0  0  0
   -3.1861   -0.7723    4.3486 H   0  0  0  0  0  0  0  0  0  0  0  0
    0.1413   -3.4377   -2.4723 H   0  0  0  0  0  0  0  0  0  0  0  0
    2.0390   -2.5961   -3.7839 H   0  0  0  0  0  0  0  0  0  0  0  0
  1  2  1  0
  2  3  2  0
  3  4  1  0
  4  5  2  0
  5  6  1  0
  6  7  1  0
  7  8  1  0
  7  9  1  0
  9 10  1  0
  9 11  1  0
 11 12  1  0
 12 13  2  0
 13 14  1  0
 14 15  2  0
 15 16  1  0
 15 17  1  0
 17 18  2  0
  5 19  1  0
 19 20  2  0
 20  2  1  0
 18 12  1  0
  1 21  1  0
  1 22  1  0
  1 23  1  0
  3 24  1  0
  4 25  1  0
  6 26  1  0
  6 27  1  0
  7 28  1  1
  8 29  1  0
  8 30  1  0
  9 31  1  6
 10 32  1  0
 10 33  1  0
 11 34  1  0
 11 35  1  0
 13 36  1  0
 14 37  1  0
 16 38  1  0
 16 39  1  0
 16 40  1  0
 17 41  1  0
 18 42  1  0
 19 43  1  0
 20 44  1  0
M  END
