
     RDKit          3D

 32 33  0  0  0  0  0  0  0  0999 V2000
    0.7270    2.4570   -2.5154 N   0  0  0  0  0  0  0  0  0  0  0  0
    0.1465    1.5590   -1.4798 C   0  0  1  0  0  0  0  0  0  0  0  0
    0.4622    2.1219   -0.0710 C   0  0  0  0  0  0  0  0  0  0  0  0
    0.1851    1.1228    1.0234 C   0  0  0  0  0  0  0  0  0  0  0  0
    0.7987   -0.0954    1.2466 C   0  0  0  0  0  0  0  0  0  0  0  0
    0.2676   -0.7711    2.3825 C   0  0  0  0  0  0  0  0  0  0  0  0
   -0.7254   -0.0425    2.9967 C   0  0  0  0  0  0  0  0  0  0  0  0
   -1.0108    1.4464    2.2077 S   0  0  0  0  0  0  0  0  0  0  0  0
   -1.3960    1.3896   -1.7128 C   0  0  1  0  0  0  0  0  0  0  0  0
   -2.0157    2.7254   -1.8775 N   0  0  0  0  0  0  0  0  0  0  0  0
   -1.7192    0.5012   -2.9399 C   0  0  0  0  0  0  0  0  0  0  0  0
   -1.2390   -0.9161   -2.7787 C   0  0  0  0  0  0  0  0  0  0  0  0
   -1.6164   -1.8452   -1.8284 C   0  0  0  0  0  0  0  0  0  0  0  0
   -0.9401   -3.0887   -1.9872 C   0  0  0  0  0  0  0  0  0  0  0  0
   -0.0767   -3.0722   -3.0590 C   0  0  0  0  0  0  0  0  0  0  0  0
   -0.0841   -1.5657   -3.8661 S   0  0  0  0  0  0  0  0  0  0  0  0
    0.6924    1.9814   -3.4174 H   0  0  0  0  0  0  0  0  0  0  0  0
    1.7188    2.5925   -2.3174 H   0  0  0  0  0  0  0  0  0  0  0  0
    0.6480    0.5902   -1.5787 H   0  0  0  0  0  0  0  0  0  0  0  0
   -0.0788    3.0608    0.1004 H   0  0  0  0  0  0  0  0  0  0  0  0
    1.5303    2.3739   -0.0112 H   0  0  0  0  0  0  0  0  0  0  0  0
    1.5906   -0.4892    0.6206 H   0  0  0  0  0  0  0  0  0  0  0  0
    0.5998   -1.7402    2.7336 H   0  0  0  0  0  0  0  0  0  0  0  0
   -1.2967   -0.3085    3.8752 H   0  0  0  0  0  0  0  0  0  0  0  0
   -1.8557    0.9277   -0.8327 H   0  0  0  0  0  0  0  0  0  0  0  0
   -1.3351    3.3021   -2.3852 H   0  0  0  0  0  0  0  0  0  0  0  0
   -2.8471    2.6707   -2.4603 H   0  0  0  0  0  0  0  0  0  0  0  0
   -1.3151    0.9518   -3.8551 H   0  0  0  0  0  0  0  0  0  0  0  0
   -2.8085    0.4626   -3.0801 H   0  0  0  0  0  0  0  0  0  0  0  0
   -2.3409   -1.6419   -1.0479 H   0  0  0  0  0  0  0  0  0  0  0  0
   -1.0830   -3.9521   -1.3492 H   0  0  0  0  0  0  0  0  0  0  0  0
    0.5570   -3.8746   -3.4112 H   0  0  0  0  0  0  0  0  0  0  0  0
  1  2  1  0
  2  3  1  0
  3  4  1  0
  4  5  2  0
  5  6  1  0
  6  7  2  0
  7  8  1  0
  2  9  1  0
  9 10  1  0
  9 11  1  0
 11 12  1  0
 12 13  2  0
 13 14  1  0
 14 15  2  0
 15 16  1  0
  8  4  1  0
 16 12  1  0
  1 17  1  0
  1 18  1  0
  2 19  1  1
  3 20  1  0
  3 21  1  0
  5 22  1  0
  6 23  1  0
  7 24  1  0
  9 25  1  1
 10 26  1  0
 10 27  1  0
 11 28  1  0
 11 29  1  0
 13 30  1  0
 14 31  1  0
 15 32  1  0
M  END
