
     RDKit          3D

 34 33  0  0  0  0  0  0  0  0999 V2000
   -0.8681    1.9828    0.2236 N   0  0  0  0  0  0  0  0  0  0  0  0
   -0.8802    0.7438   -0.5659 C   0  0  1  0  0  0  0  0  0  0  0  0
    0.4844    0.0236   -0.4865 C   0  0  0  0  0  0  0  0  0  0  0  0
    1.6911    0.8108   -1.0187 C   0  0  0  0  0  0  0  0  0  0  0  0
    1.5847    1.1610   -2.5027 C   0  0  0  0  0  0  0  0  0  0  0  0
    2.8188    1.8012   -2.9841 C   0  0  0  0  0  0  0  0  0  0  0  0
    3.8250    2.3238   -3.3798 C   0  0  0  0  0  0  0  0  0  0  0  0
   -2.0812   -0.1841   -0.1688 C   0  0  1  0  0  0  0  0  0  0  0  0
   -2.3099   -1.1850   -1.2294 N   0  0  0  0  0  0  0  0  0  0  0  0
   -1.9568   -0.9421    1.1716 C   0  0  0  0  0  0  0  0  0  0  0  0
   -1.8195   -0.0422    2.4060 C   0  0  0  0  0  0  0  0  0  0  0  0
   -1.9569   -0.8148    3.7207 C   0  0  0  0  0  0  0  0  0  0  0  0
   -0.8312   -1.7324    3.9524 C   0  0  0  0  0  0  0  0  0  0  0  0
    0.0876   -2.4817    4.1431 C   0  0  0  0  0  0  0  0  0  0  0  0
   -0.1439    2.6103   -0.1224 H   0  0  0  0  0  0  0  0  0  0  0  0
   -1.7510    2.4765    0.0994 H   0  0  0  0  0  0  0  0  0  0  0  0
   -1.0511    1.0499   -1.6054 H   0  0  0  0  0  0  0  0  0  0  0  0
    0.7013   -0.2405    0.5561 H   0  0  0  0  0  0  0  0  0  0  0  0
    0.4285   -0.9237   -1.0372 H   0  0  0  0  0  0  0  0  0  0  0  0
    2.5882    0.1976   -0.8580 H   0  0  0  0  0  0  0  0  0  0  0  0
    1.8447    1.7208   -0.4261 H   0  0  0  0  0  0  0  0  0  0  0  0
    1.3919    0.2539   -3.0870 H   0  0  0  0  0  0  0  0  0  0  0  0
    0.7455    1.8430   -2.6750 H   0  0  0  0  0  0  0  0  0  0  0  0
    4.7194    2.7856   -3.7298 H   0  0  0  0  0  0  0  0  0  0  0  0
   -2.9885    0.4333   -0.1245 H   0  0  0  0  0  0  0  0  0  0  0  0
   -2.5605   -0.7117   -2.0965 H   0  0  0  0  0  0  0  0  0  0  0  0
   -3.1101   -1.7664   -0.9819 H   0  0  0  0  0  0  0  0  0  0  0  0
   -1.1143   -1.6434    1.1295 H   0  0  0  0  0  0  0  0  0  0  0  0
   -2.8565   -1.5597    1.3025 H   0  0  0  0  0  0  0  0  0  0  0  0
   -0.8523    0.4717    2.3949 H   0  0  0  0  0  0  0  0  0  0  0  0
   -2.6016    0.7261    2.3771 H   0  0  0  0  0  0  0  0  0  0  0  0
   -2.0031   -0.0956    4.5472 H   0  0  0  0  0  0  0  0  0  0  0  0
   -2.9016   -1.3703    3.7334 H   0  0  0  0  0  0  0  0  0  0  0  0
    0.9047   -3.1453    4.3089 H   0  0  0  0  0  0  0  0  0  0  0  0
  1  2  1  0
  2  3  1  0
  3  4  1  0
  4  5  1  0
  5  6  1  0
  6  7  3  0
  2  8  1  0
  8  9  1  0
  8 10  1  0
 10 11  1  0
 11 12  1  0
 12 13  1  0
 13 14  3  0
  1 15  1  0
  1 16  1  0
  2 17  1  6
  3 18  1  0
  3 19  1  0
  4 20  1  0
  4 21  1  0
  5 22  1  0
  5 23  1  0
  7 24  1  0
  8 25  1  1
  9 26  1  0
  9 27  1  0
 10 28  1  0
 10 29  1  0
 11 30  1  0
 11 31  1  0
 12 32  1  0
 12 33  1  0
 14 34  1  0
M  END
