
     RDKit          3D

 18 17  0  0  0  0  0  0  0  0999 V2000
    1.3335   -1.4248   -1.3910 C   0  0  0  0  0  0  0  0  0  0  0  0
    0.9057    0.0527   -1.3613 C   0  0  2  0  0  0  0  0  0  0  0  0
    0.5813    0.3719    0.0751 N   0  0  0  0  0  0  0  0  0  0  0  0
   -0.3778    0.2675   -2.2144 C   0  0  0  0  0  0  0  0  0  0  0  0
   -1.5809   -0.3322   -1.6128 N   0  0  0  0  0  0  0  0  0  0  0  0
    2.0401    0.9167   -1.9861 C   0  0  0  0  0  0  0  0  0  0  0  0
    1.7206    2.2316   -1.9597 F   0  0  0  0  0  0  0  0  0  0  0  0
    3.1936    0.7736   -1.2906 F   0  0  0  0  0  0  0  0  0  0  0  0
    2.2878    0.5768   -3.2688 F   0  0  0  0  0  0  0  0  0  0  0  0
    1.5134   -1.7614   -2.4183 H   0  0  0  0  0  0  0  0  0  0  0  0
    0.5710   -2.0826   -0.9588 H   0  0  0  0  0  0  0  0  0  0  0  0
    2.2592   -1.5812   -0.8248 H   0  0  0  0  0  0  0  0  0  0  0  0
    0.3070    1.3572    0.1277 H   0  0  0  0  0  0  0  0  0  0  0  0
    1.4431    0.3082    0.6234 H   0  0  0  0  0  0  0  0  0  0  0  0
   -0.2472   -0.1360   -3.2250 H   0  0  0  0  0  0  0  0  0  0  0  0
   -0.5754    1.3408   -2.3205 H   0  0  0  0  0  0  0  0  0  0  0  0
   -1.5141   -1.3483   -1.6665 H   0  0  0  0  0  0  0  0  0  0  0  0
   -1.5284   -0.1381   -0.6056 H   0  0  0  0  0  0  0  0  0  0  0  0
  1  2  1  0
  2  3  1  1
  2  4  1  0
  4  5  1  0
  2  6  1  0
  6  7  1  0
  6  8  1  0
  6  9  1  0
  1 10  1  0
  1 11  1  0
  1 12  1  0
  3 13  1  0
  3 14  1  0
  4 15  1  0
  4 16  1  0
  5 17  1  0
  5 18  1  0
M  END
