
     RDKit          3D

 21 20  0  0  0  0  0  0  0  0999 V2000
    1.3458    0.4010   -1.1023 C   0  0  0  0  0  0  0  0  0  0  0  0
    1.1791    1.1274    0.2337 C   0  0  2  0  0  0  0  0  0  0  0  0
    2.4717    1.0414    0.9334 N   0  0  0  0  0  0  0  0  0  0  0  0
    0.0520    0.5908    1.1568 C   0  0  2  0  0  0  0  0  0  0  0  0
    0.0696   -0.9335    1.3289 C   0  0  0  0  0  0  0  0  0  0  0  0
   -1.3595    1.1015    0.7882 C   0  0  0  0  0  0  0  0  0  0  0  0
   -1.9282    0.5694   -0.4431 N   0  0  0  0  0  0  0  0  0  0  0  0
    1.6125   -0.6529   -0.9680 H   0  0  0  0  0  0  0  0  0  0  0  0
    0.4419    0.4458   -1.7115 H   0  0  0  0  0  0  0  0  0  0  0  0
    2.1448    0.8638   -1.6944 H   0  0  0  0  0  0  0  0  0  0  0  0
    0.9899    2.1883    0.0294 H   0  0  0  0  0  0  0  0  0  0  0  0
    2.4389    1.5938    1.7889 H   0  0  0  0  0  0  0  0  0  0  0  0
    3.2049    1.4496    0.3549 H   0  0  0  0  0  0  0  0  0  0  0  0
    0.2388    1.0108    2.1572 H   0  0  0  0  0  0  0  0  0  0  0  0
    1.0482   -1.2809    1.6758 H   0  0  0  0  0  0  0  0  0  0  0  0
   -0.6708   -1.2423    2.0752 H   0  0  0  0  0  0  0  0  0  0  0  0
   -0.1651   -1.4554    0.3961 H   0  0  0  0  0  0  0  0  0  0  0  0
   -1.3532    2.1965    0.7341 H   0  0  0  0  0  0  0  0  0  0  0  0
   -2.0408    0.8398    1.6074 H   0  0  0  0  0  0  0  0  0  0  0  0
   -1.4976    1.0189   -1.2486 H   0  0  0  0  0  0  0  0  0  0  0  0
   -2.9163    0.8178   -0.4912 H   0  0  0  0  0  0  0  0  0  0  0  0
  1  2  1  0
  2  3  1  0
  2  4  1  0
  4  5  1  0
  4  6  1  0
  6  7  1  0
  1  8  1  0
  1  9  1  0
  1 10  1  0
  2 11  1  6
  3 12  1  0
  3 13  1  0
  4 14  1  1
  5 15  1  0
  5 16  1  0
  5 17  1  0
  6 18  1  0
  6 19  1  0
  7 20  1  0
  7 21  1  0
M  END
