
     RDKit          3D

 32 32  0  0  0  0  0  0  0  0999 V2000
   -0.5121    1.4543   -4.6503 C   0  0  0  0  0  0  0  0  0  0  0  0
    0.8641    2.0158   -4.4912 C   0  0  0  0  0  0  0  0  0  0  0  0
    1.6689    1.9330   -3.4199 C   0  0  0  0  0  0  0  0  0  0  0  0
    1.3680    1.2870   -2.0893 C   0  0  0  0  0  0  0  0  0  0  0  0
    2.1157   -0.0458   -1.7865 C   0  0  1  0  0  0  0  0  0  0  0  0
    3.5939    0.1900   -1.8446 N   0  0  0  0  0  0  0  0  0  0  0  0
    1.8082   -0.4376   -0.3865 C   0  0  0  0  0  0  0  0  0  0  0  0
    1.5565   -0.7566    0.7445 C   0  0  0  0  0  0  0  0  0  0  0  0
    1.2582   -1.1344    2.0910 C   0  0  0  0  0  0  0  0  0  0  0  0
    1.8756   -0.4734    3.1552 C   0  0  0  0  0  0  0  0  0  0  0  0
    1.5841   -0.8417    4.4701 C   0  0  0  0  0  0  0  0  0  0  0  0
    0.6761   -1.8703    4.7214 C   0  0  0  0  0  0  0  0  0  0  0  0
    0.0589   -2.5317    3.6597 C   0  0  0  0  0  0  0  0  0  0  0  0
    0.3494   -2.1644    2.3442 C   0  0  0  0  0  0  0  0  0  0  0  0
    1.6122   -1.1739   -2.7531 C   0  0  0  0  0  0  0  0  0  0  0  0
    0.2697   -1.3316   -2.7164 F   0  0  0  0  0  0  0  0  0  0  0  0
    1.9615   -0.9255   -4.0391 F   0  0  0  0  0  0  0  0  0  0  0  0
    2.1716   -2.3711   -2.4364 F   0  0  0  0  0  0  0  0  0  0  0  0
   -0.8488    0.8787   -3.7857 H   0  0  0  0  0  0  0  0  0  0  0  0
   -1.2261    2.2665   -4.8177 H   0  0  0  0  0  0  0  0  0  0  0  0
   -0.5390    0.7914   -5.5210 H   0  0  0  0  0  0  0  0  0  0  0  0
    1.2421    2.5440   -5.3667 H   0  0  0  0  0  0  0  0  0  0  0  0
    2.6469    2.4111   -3.4872 H   0  0  0  0  0  0  0  0  0  0  0  0
    0.2883    1.1351   -1.9683 H   0  0  0  0  0  0  0  0  0  0  0  0
    1.6247    2.0288   -1.3179 H   0  0  0  0  0  0  0  0  0  0  0  0
    4.0595   -0.6852   -1.5945 H   0  0  0  0  0  0  0  0  0  0  0  0
    3.8467    0.3526   -2.8214 H   0  0  0  0  0  0  0  0  0  0  0  0
    2.5850    0.3290    2.9669 H   0  0  0  0  0  0  0  0  0  0  0  0
    2.0654   -0.3266    5.2973 H   0  0  0  0  0  0  0  0  0  0  0  0
    0.4497   -2.1569    5.7454 H   0  0  0  0  0  0  0  0  0  0  0  0
   -0.6483   -3.3335    3.8557 H   0  0  0  0  0  0  0  0  0  0  0  0
   -0.1358   -2.6855    1.5225 H   0  0  0  0  0  0  0  0  0  0  0  0
  1  2  1  0
  2  3  2  0
  3  4  1  0
  4  5  1  0
  5  6  1  0
  5  7  1  1
  7  8  3  0
  8  9  1  0
  9 10  2  0
 10 11  1  0
 11 12  2  0
 12 13  1  0
 13 14  2  0
  5 15  1  0
 15 16  1  0
 15 17  1  0
 15 18  1  0
 14  9  1  0
  1 19  1  0
  1 20  1  0
  1 21  1  0
  2 22  1  0
  3 23  1  0
  4 24  1  0
  4 25  1  0
  6 26  1  0
  6 27  1  0
 10 28  1  0
 11 29  1  0
 12 30  1  0
 13 31  1  0
 14 32  1  0
M  END
