
     RDKit          3D

 37 38  0  0  0  0  0  0  0  0999 V2000
    2.0629   -1.7396    1.8883 N   0  0  0  0  0  0  0  0  0  0  0  0
    0.6929   -2.3540    1.7377 C   0  0  2  0  0  0  0  0  0  0  0  0
   -0.4246   -1.2518    1.6525 C   0  0  1  0  0  0  0  0  0  0  0  0
   -0.0791   -0.1471    0.6487 C   0  0  0  0  0  0  0  0  0  0  0  0
   -0.8805    0.4221   -0.2698 C   0  0  0  0  0  0  0  0  0  0  0  0
   -0.4521    1.4947   -1.1801 C   0  0  0  0  0  0  0  0  0  0  0  0
   -1.3724    2.4961   -1.5247 C   0  0  0  0  0  0  0  0  0  0  0  0
   -1.0137    3.5160   -2.4094 C   0  0  0  0  0  0  0  0  0  0  0  0
    0.2618    3.5285   -2.9590 C   0  0  0  0  0  0  0  0  0  0  0  0
    0.6053    4.5053   -3.8085 F   0  0  0  0  0  0  0  0  0  0  0  0
    1.1840    2.5384   -2.6447 C   0  0  0  0  0  0  0  0  0  0  0  0
    0.8257    1.5184   -1.7598 C   0  0  0  0  0  0  0  0  0  0  0  0
   -1.8175   -1.8420    1.4374 C   0  0  0  0  0  0  0  0  0  0  0  0
   -2.8444   -1.5583    2.3554 C   0  0  0  0  0  0  0  0  0  0  0  0
   -4.1230   -2.0887    2.1753 C   0  0  0  0  0  0  0  0  0  0  0  0
   -4.3820   -2.8987    1.0772 C   0  0  0  0  0  0  0  0  0  0  0  0
   -5.6104   -3.4038    0.9048 F   0  0  0  0  0  0  0  0  0  0  0  0
   -3.3874   -3.1872    0.1519 C   0  0  0  0  0  0  0  0  0  0  0  0
   -2.1072   -2.6598    0.3286 C   0  0  0  0  0  0  0  0  0  0  0  0
    0.3782   -3.3767    2.8652 C   0  0  0  0  0  0  0  0  0  0  0  0
    0.1889   -2.7529    4.0508 F   0  0  0  0  0  0  0  0  0  0  0  0
    1.4330   -4.2184    3.0249 F   0  0  0  0  0  0  0  0  0  0  0  0
   -0.6977   -4.1436    2.6107 F   0  0  0  0  0  0  0  0  0  0  0  0
    2.7419   -2.5014    1.9780 H   0  0  0  0  0  0  0  0  0  0  0  0
    2.1022   -1.2493    2.7855 H   0  0  0  0  0  0  0  0  0  0  0  0
    0.7260   -2.9089    0.7922 H   0  0  0  0  0  0  0  0  0  0  0  0
   -0.4268   -0.7466    2.6303 H   0  0  0  0  0  0  0  0  0  0  0  0
    0.9390    0.2313    0.7410 H   0  0  0  0  0  0  0  0  0  0  0  0
   -1.9220    0.1261   -0.3677 H   0  0  0  0  0  0  0  0  0  0  0  0
   -2.3740    2.4941   -1.1000 H   0  0  0  0  0  0  0  0  0  0  0  0
   -1.7206    4.2962   -2.6723 H   0  0  0  0  0  0  0  0  0  0  0  0
    2.1722    2.5617   -3.0923 H   0  0  0  0  0  0  0  0  0  0  0  0
    1.5507    0.7391   -1.5363 H   0  0  0  0  0  0  0  0  0  0  0  0
   -2.6570   -0.9224    3.2186 H   0  0  0  0  0  0  0  0  0  0  0  0
   -4.9173   -1.8749    2.8833 H   0  0  0  0  0  0  0  0  0  0  0  0
   -3.6154   -3.8172   -0.7019 H   0  0  0  0  0  0  0  0  0  0  0  0
   -1.3434   -2.8804   -0.4143 H   0  0  0  0  0  0  0  0  0  0  0  0
  1  2  1  0
  2  3  1  0
  3  4  1  0
  4  5  2  0
  5  6  1  0
  6  7  2  0
  7  8  1  0
  8  9  2  0
  9 10  1  0
  9 11  1  0
 11 12  2  0
  3 13  1  0
 13 14  2  0
 14 15  1  0
 15 16  2  0
 16 17  1  0
 16 18  1  0
 18 19  2  0
  2 20  1  0
 20 21  1  0
 20 22  1  0
 20 23  1  0
 12  6  1  0
 19 13  1  0
  1 24  1  0
  1 25  1  0
  2 26  1  6
  3 27  1  1
  4 28  1  0
  5 29  1  0
  7 30  1  0
  8 31  1  0
 11 32  1  0
 12 33  1  0
 14 34  1  0
 15 35  1  0
 18 36  1  0
 19 37  1  0
M  END
