
     RDKit          3D

 37 38  0  0  0  0  0  0  0  0999 V2000
    1.3831    0.1258   -4.0549 N   0  0  0  0  0  0  0  0  0  0  0  0
    0.7685   -0.5909   -2.8803 C   0  0  2  0  0  0  0  0  0  0  0  0
    0.0043    0.4194   -1.9634 C   0  0  1  0  0  0  0  0  0  0  0  0
   -1.0060   -0.2575   -1.0490 C   0  0  0  0  0  0  0  0  0  0  0  0
   -2.3353   -0.0832   -1.1480 C   0  0  0  0  0  0  0  0  0  0  0  0
   -3.3137   -0.7416   -0.2724 C   0  0  0  0  0  0  0  0  0  0  0  0
   -4.5193   -1.1956   -0.8223 C   0  0  0  0  0  0  0  0  0  0  0  0
   -5.4848   -1.8030   -0.0155 C   0  0  0  0  0  0  0  0  0  0  0  0
   -5.2589   -1.9515    1.3513 C   0  0  0  0  0  0  0  0  0  0  0  0
   -4.0707   -1.4884    1.9127 C   0  0  0  0  0  0  0  0  0  0  0  0
   -3.1048   -0.8816    1.1058 C   0  0  0  0  0  0  0  0  0  0  0  0
    0.8981    1.4116   -1.2223 C   0  0  0  0  0  0  0  0  0  0  0  0
    1.1505    2.6703   -1.7961 C   0  0  0  0  0  0  0  0  0  0  0  0
    1.9702    3.6015   -1.1556 C   0  0  0  0  0  0  0  0  0  0  0  0
    2.5523    3.2903    0.0696 C   0  0  0  0  0  0  0  0  0  0  0  0
    2.3145    2.0491    0.6539 C   0  0  0  0  0  0  0  0  0  0  0  0
    1.4939    1.1165    0.0145 C   0  0  0  0  0  0  0  0  0  0  0  0
    1.7593   -1.5142   -2.1280 C   0  0  0  0  0  0  0  0  0  0  0  0
    2.8373   -0.8444   -1.6668 F   0  0  0  0  0  0  0  0  0  0  0  0
    2.2315   -2.4609   -2.9818 F   0  0  0  0  0  0  0  0  0  0  0  0
    1.1939   -2.1654   -1.0920 F   0  0  0  0  0  0  0  0  0  0  0  0
    1.8731   -0.5662   -4.6281 H   0  0  0  0  0  0  0  0  0  0  0  0
    2.1241    0.7358   -3.6951 H   0  0  0  0  0  0  0  0  0  0  0  0
    0.0129   -1.2534   -3.3238 H   0  0  0  0  0  0  0  0  0  0  0  0
   -0.6028    1.0295   -2.6521 H   0  0  0  0  0  0  0  0  0  0  0  0
   -0.6180   -0.9290   -0.2865 H   0  0  0  0  0  0  0  0  0  0  0  0
   -2.7527    0.5629   -1.9173 H   0  0  0  0  0  0  0  0  0  0  0  0
   -4.7143   -1.0879   -1.8868 H   0  0  0  0  0  0  0  0  0  0  0  0
   -6.4133   -2.1582   -0.4548 H   0  0  0  0  0  0  0  0  0  0  0  0
   -6.0104   -2.4224    1.9795 H   0  0  0  0  0  0  0  0  0  0  0  0
   -3.8965   -1.5933    2.9804 H   0  0  0  0  0  0  0  0  0  0  0  0
   -2.1939   -0.5088    1.5679 H   0  0  0  0  0  0  0  0  0  0  0  0
    0.7056    2.9362   -2.7538 H   0  0  0  0  0  0  0  0  0  0  0  0
    2.1521    4.5703   -1.6136 H   0  0  0  0  0  0  0  0  0  0  0  0
    3.1904    4.0142    0.5694 H   0  0  0  0  0  0  0  0  0  0  0  0
    2.7700    1.8037    1.6100 H   0  0  0  0  0  0  0  0  0  0  0  0
    1.3364    0.1554    0.4983 H   0  0  0  0  0  0  0  0  0  0  0  0
  1  2  1  0
  2  3  1  0
  3  4  1  0
  4  5  2  0
  5  6  1  0
  6  7  2  0
  7  8  1  0
  8  9  2  0
  9 10  1  0
 10 11  2  0
  3 12  1  0
 12 13  2  0
 13 14  1  0
 14 15  2  0
 15 16  1  0
 16 17  2  0
  2 18  1  0
 18 19  1  0
 18 20  1  0
 18 21  1  0
 11  6  1  0
 17 12  1  0
  1 22  1  0
  1 23  1  0
  2 24  1  6
  3 25  1  6
  4 26  1  0
  5 27  1  0
  7 28  1  0
  8 29  1  0
  9 30  1  0
 10 31  1  0
 11 32  1  0
 13 33  1  0
 14 34  1  0
 15 35  1  0
 16 36  1  0
 17 37  1  0
M  END
