
     RDKit          3D

 43 44  0  0  0  0  0  0  0  0999 V2000
   -2.1410    0.2791    2.6957 C   0  0  0  0  0  0  0  0  0  0  0  0
   -2.8412    0.9203    1.5274 C   0  0  0  0  0  0  0  0  0  0  0  0
   -2.3141    0.8546    0.2223 C   0  0  0  0  0  0  0  0  0  0  0  0
   -1.0698    0.1285   -0.0615 C   0  0  0  0  0  0  0  0  0  0  0  0
    0.0190    0.7351   -0.5643 C   0  0  0  0  0  0  0  0  0  0  0  0
    1.3542    0.0766   -0.8775 C   0  0  1  0  0  0  0  0  0  0  0  0
    2.4810    0.5394    0.1180 C   0  0  2  0  0  0  0  0  0  0  0  0
    3.7949   -0.1272   -0.1495 N   0  0  0  0  0  0  0  0  0  0  0  0
    2.0443    0.5864    1.6116 C   0  0  0  0  0  0  0  0  0  0  0  0
    1.1788    1.6001    1.8449 F   0  0  0  0  0  0  0  0  0  0  0  0
    1.4830   -0.5526    2.0600 F   0  0  0  0  0  0  0  0  0  0  0  0
    3.1300    0.8346    2.3955 F   0  0  0  0  0  0  0  0  0  0  0  0
    1.2343   -1.4199   -1.2240 C   0  0  0  0  0  0  0  0  0  0  0  0
    0.6986   -1.8398   -2.4716 C   0  0  0  0  0  0  0  0  0  0  0  0
    0.2539   -0.8655   -3.5324 C   0  0  0  0  0  0  0  0  0  0  0  0
    0.5696   -3.2132   -2.7508 C   0  0  0  0  0  0  0  0  0  0  0  0
    0.9601   -4.1744   -1.8241 C   0  0  0  0  0  0  0  0  0  0  0  0
    1.4881   -3.7758   -0.6056 C   0  0  0  0  0  0  0  0  0  0  0  0
    1.6223   -2.4172   -0.3105 C   0  0  0  0  0  0  0  0  0  0  0  0
   -3.0015    1.4730   -0.8335 C   0  0  0  0  0  0  0  0  0  0  0  0
   -4.1949    2.1572   -0.6020 C   0  0  0  0  0  0  0  0  0  0  0  0
   -4.7144    2.2289    0.6866 C   0  0  0  0  0  0  0  0  0  0  0  0
   -4.0419    1.6163    1.7445 C   0  0  0  0  0  0  0  0  0  0  0  0
   -1.1524    0.7284    2.8369 H   0  0  0  0  0  0  0  0  0  0  0  0
   -2.7025    0.4166    3.6264 H   0  0  0  0  0  0  0  0  0  0  0  0
   -2.0360   -0.7988    2.5342 H   0  0  0  0  0  0  0  0  0  0  0  0
   -1.0758   -0.9309    0.1840 H   0  0  0  0  0  0  0  0  0  0  0  0
   -0.0269    1.8052   -0.7678 H   0  0  0  0  0  0  0  0  0  0  0  0
    1.6749    0.5328   -1.8264 H   0  0  0  0  0  0  0  0  0  0  0  0
    2.6711    1.5956   -0.1248 H   0  0  0  0  0  0  0  0  0  0  0  0
    4.5078    0.2782    0.4595 H   0  0  0  0  0  0  0  0  0  0  0  0
    4.0805    0.0431   -1.1131 H   0  0  0  0  0  0  0  0  0  0  0  0
   -0.5583   -0.2328   -3.1641 H   0  0  0  0  0  0  0  0  0  0  0  0
   -0.1228   -1.3843   -4.4208 H   0  0  0  0  0  0  0  0  0  0  0  0
    1.0927   -0.2433   -3.8583 H   0  0  0  0  0  0  0  0  0  0  0  0
    0.1582   -3.5442   -3.7024 H   0  0  0  0  0  0  0  0  0  0  0  0
    0.8544   -5.2302   -2.0549 H   0  0  0  0  0  0  0  0  0  0  0  0
    1.8013   -4.5199    0.1222 H   0  0  0  0  0  0  0  0  0  0  0  0
    2.0528   -2.1645    0.6526 H   0  0  0  0  0  0  0  0  0  0  0  0
   -2.6136    1.4145   -1.8477 H   0  0  0  0  0  0  0  0  0  0  0  0
   -4.7181    2.6316   -1.4277 H   0  0  0  0  0  0  0  0  0  0  0  0
   -5.6433    2.7621    0.8705 H   0  0  0  0  0  0  0  0  0  0  0  0
   -4.4627    1.6844    2.7451 H   0  0  0  0  0  0  0  0  0  0  0  0
  1  2  1  0
  2  3  2  0
  3  4  1  0
  4  5  2  0
  5  6  1  0
  6  7  1  0
  7  8  1  0
  7  9  1  0
  9 10  1  0
  9 11  1  0
  9 12  1  0
  6 13  1  0
 13 14  2  0
 14 15  1  0
 14 16  1  0
 16 17  2  0
 17 18  1  0
 18 19  2  0
  3 20  1  0
 20 21  2  0
 21 22  1  0
 22 23  2  0
 23  2  1  0
 19 13  1  0
  1 24  1  0
  1 25  1  0
  1 26  1  0
  4 27  1  0
  5 28  1  0
  6 29  1  6
  7 30  1  6
  8 31  1  0
  8 32  1  0
 15 33  1  0
 15 34  1  0
 15 35  1  0
 16 36  1  0
 17 37  1  0
 18 38  1  0
 19 39  1  0
 20 40  1  0
 21 41  1  0
 22 42  1  0
 23 43  1  0
M  END
