
     RDKit          3D

 40 41  0  0  0  0  0  0  0  0999 V2000
   -2.0155   -2.1748   -5.2143 C   0  0  0  0  0  0  0  0  0  0  0  0
   -2.1673   -1.2381   -4.0526 C   0  0  0  0  0  0  0  0  0  0  0  0
   -3.2630   -0.3715   -3.9787 C   0  0  0  0  0  0  0  0  0  0  0  0
   -3.3878    0.5163   -2.9106 C   0  0  0  0  0  0  0  0  0  0  0  0
   -2.4101    0.5568   -1.9151 C   0  0  0  0  0  0  0  0  0  0  0  0
   -1.2909   -0.2807   -1.9856 C   0  0  0  0  0  0  0  0  0  0  0  0
   -0.2527   -0.2822   -0.9473 C   0  0  0  0  0  0  0  0  0  0  0  0
    0.2351    0.8349   -0.3830 C   0  0  0  0  0  0  0  0  0  0  0  0
    1.3100    0.8475    0.6898 C   0  0  1  0  0  0  0  0  0  0  0  0
    2.7013    1.3680    0.1875 C   0  0  2  0  0  0  0  0  0  0  0  0
    2.6136    2.5726   -0.7101 N   0  0  0  0  0  0  0  0  0  0  0  0
    3.4918    0.1856   -0.4312 C   0  0  0  0  0  0  0  0  0  0  0  0
    4.7205    0.6019   -0.8274 F   0  0  0  0  0  0  0  0  0  0  0  0
    2.8759   -0.3266   -1.5184 F   0  0  0  0  0  0  0  0  0  0  0  0
    3.6750   -0.8161    0.4563 F   0  0  0  0  0  0  0  0  0  0  0  0
    0.8057    1.5831    1.9330 C   0  0  0  0  0  0  0  0  0  0  0  0
    0.3455    0.8441    3.0366 C   0  0  0  0  0  0  0  0  0  0  0  0
   -0.1313    1.4875    4.1806 C   0  0  0  0  0  0  0  0  0  0  0  0
   -0.1629    2.8783    4.2368 C   0  0  0  0  0  0  0  0  0  0  0  0
    0.2765    3.6260    3.1474 C   0  0  0  0  0  0  0  0  0  0  0  0
    0.7532    2.9840    2.0022 C   0  0  0  0  0  0  0  0  0  0  0  0
   -1.1828   -1.1804   -3.0550 C   0  0  0  0  0  0  0  0  0  0  0  0
   -1.4497   -1.6889   -6.0151 H   0  0  0  0  0  0  0  0  0  0  0  0
   -1.4914   -3.0880   -4.9133 H   0  0  0  0  0  0  0  0  0  0  0  0
   -2.9934   -2.4759   -5.6043 H   0  0  0  0  0  0  0  0  0  0  0  0
   -4.0295   -0.3868   -4.7502 H   0  0  0  0  0  0  0  0  0  0  0  0
   -4.2489    1.1767   -2.8507 H   0  0  0  0  0  0  0  0  0  0  0  0
   -2.5355    1.2436   -1.0814 H   0  0  0  0  0  0  0  0  0  0  0  0
    0.1318   -1.2599   -0.6661 H   0  0  0  0  0  0  0  0  0  0  0  0
   -0.1438    1.8089   -0.6899 H   0  0  0  0  0  0  0  0  0  0  0  0
    1.4679   -0.1926    1.0103 H   0  0  0  0  0  0  0  0  0  0  0  0
    3.2841    1.6899    1.0606 H   0  0  0  0  0  0  0  0  0  0  0  0
    2.1276    2.2961   -1.5680 H   0  0  0  0  0  0  0  0  0  0  0  0
    3.5612    2.8121   -1.0134 H   0  0  0  0  0  0  0  0  0  0  0  0
    0.3496   -0.2438    3.0130 H   0  0  0  0  0  0  0  0  0  0  0  0
   -0.4822    0.9018    5.0262 H   0  0  0  0  0  0  0  0  0  0  0  0
   -0.5357    3.3795    5.1260 H   0  0  0  0  0  0  0  0  0  0  0  0
    0.2451    4.7118    3.1847 H   0  0  0  0  0  0  0  0  0  0  0  0
    1.0777    3.5938    1.1619 H   0  0  0  0  0  0  0  0  0  0  0  0
   -0.3186   -1.8391   -3.1196 H   0  0  0  0  0  0  0  0  0  0  0  0
  1  2  1  0
  2  3  2  0
  3  4  1  0
  4  5  2  0
  5  6  1  0
  6  7  1  0
  7  8  2  0
  8  9  1  0
  9 10  1  0
 10 11  1  0
 10 12  1  0
 12 13  1  0
 12 14  1  0
 12 15  1  0
  9 16  1  0
 16 17  2  0
 17 18  1  0
 18 19  2  0
 19 20  1  0
 20 21  2  0
  6 22  2  0
 22  2  1  0
 21 16  1  0
  1 23  1  0
  1 24  1  0
  1 25  1  0
  3 26  1  0
  4 27  1  0
  5 28  1  0
  7 29  1  0
  8 30  1  0
  9 31  1  1
 10 32  1  1
 11 33  1  0
 11 34  1  0
 17 35  1  0
 18 36  1  0
 19 37  1  0
 20 38  1  0
 21 39  1  0
 22 40  1  0
M  END
