
     RDKit          3D

 40 41  0  0  0  0  0  0  0  0999 V2000
   -2.7168   -2.8516   -1.9001 C   0  0  0  0  0  0  0  0  0  0  0  0
   -1.3146   -2.5700   -1.4472 C   0  0  0  0  0  0  0  0  0  0  0  0
   -0.3971   -3.6141   -1.2954 C   0  0  0  0  0  0  0  0  0  0  0  0
    0.8940   -3.3565   -0.8376 C   0  0  0  0  0  0  0  0  0  0  0  0
    1.2788   -2.0537   -0.5210 C   0  0  0  0  0  0  0  0  0  0  0  0
    0.3758   -0.9889   -0.6590 C   0  0  0  0  0  0  0  0  0  0  0  0
   -0.9260   -1.2651   -1.1135 C   0  0  0  0  0  0  0  0  0  0  0  0
    0.8148    0.4280   -0.3028 C   0  0  2  0  0  0  0  0  0  0  0  0
    0.0363    0.9070    0.9158 C   0  0  0  0  0  0  0  0  0  0  0  0
    0.5572    0.9936    2.1516 C   0  0  0  0  0  0  0  0  0  0  0  0
   -0.1934    1.4650    3.3225 C   0  0  0  0  0  0  0  0  0  0  0  0
   -1.5221    1.0868    3.5552 C   0  0  0  0  0  0  0  0  0  0  0  0
   -2.1968    1.5280    4.6965 C   0  0  0  0  0  0  0  0  0  0  0  0
   -1.5464    2.3431    5.6206 C   0  0  0  0  0  0  0  0  0  0  0  0
   -0.2201    2.7130    5.4074 C   0  0  0  0  0  0  0  0  0  0  0  0
    0.4549    2.2711    4.2667 C   0  0  0  0  0  0  0  0  0  0  0  0
    0.7209    1.4207   -1.5103 C   0  0  1  0  0  0  0  0  0  0  0  0
    0.9159    2.8466   -1.0705 N   0  0  0  0  0  0  0  0  0  0  0  0
    1.7012    0.9907   -2.6348 C   0  0  0  0  0  0  0  0  0  0  0  0
    1.7131    1.9296   -3.6169 F   0  0  0  0  0  0  0  0  0  0  0  0
    1.3713   -0.1784   -3.2140 F   0  0  0  0  0  0  0  0  0  0  0  0
    2.9685    0.8923   -2.1697 F   0  0  0  0  0  0  0  0  0  0  0  0
   -2.7471   -3.7248   -2.5603 H   0  0  0  0  0  0  0  0  0  0  0  0
   -3.1218   -2.0047   -2.4641 H   0  0  0  0  0  0  0  0  0  0  0  0
   -3.3587   -3.0405   -1.0342 H   0  0  0  0  0  0  0  0  0  0  0  0
   -0.6836   -4.6365   -1.5308 H   0  0  0  0  0  0  0  0  0  0  0  0
    1.6015   -4.1738   -0.7239 H   0  0  0  0  0  0  0  0  0  0  0  0
    2.2910   -1.8796   -0.1623 H   0  0  0  0  0  0  0  0  0  0  0  0
   -1.6531   -0.4601   -1.2035 H   0  0  0  0  0  0  0  0  0  0  0  0
    1.8755    0.3899   -0.0130 H   0  0  0  0  0  0  0  0  0  0  0  0
   -0.9915    1.2167    0.7369 H   0  0  0  0  0  0  0  0  0  0  0  0
    1.5930    0.7186    2.3342 H   0  0  0  0  0  0  0  0  0  0  0  0
   -2.0409    0.4355    2.8561 H   0  0  0  0  0  0  0  0  0  0  0  0
   -3.2282    1.2298    4.8648 H   0  0  0  0  0  0  0  0  0  0  0  0
   -2.0714    2.6858    6.5083 H   0  0  0  0  0  0  0  0  0  0  0  0
    0.2907    3.3453    6.1288 H   0  0  0  0  0  0  0  0  0  0  0  0
    1.4894    2.5705    4.1168 H   0  0  0  0  0  0  0  0  0  0  0  0
   -0.2896    1.3880   -1.9352 H   0  0  0  0  0  0  0  0  0  0  0  0
    1.0010    3.4337   -1.9041 H   0  0  0  0  0  0  0  0  0  0  0  0
    1.8131    2.9242   -0.5878 H   0  0  0  0  0  0  0  0  0  0  0  0
  1  2  1  0
  2  3  2  0
  3  4  1  0
  4  5  2  0
  5  6  1  0
  6  7  2  0
  6  8  1  0
  8  9  1  0
  9 10  2  0
 10 11  1  0
 11 12  2  0
 12 13  1  0
 13 14  2  0
 14 15  1  0
 15 16  2  0
  8 17  1  0
 17 18  1  0
 17 19  1  0
 19 20  1  0
 19 21  1  0
 19 22  1  0
  7  2  1  0
 16 11  1  0
  1 23  1  0
  1 24  1  0
  1 25  1  0
  3 26  1  0
  4 27  1  0
  5 28  1  0
  7 29  1  0
  8 30  1  1
  9 31  1  0
 10 32  1  0
 12 33  1  0
 13 34  1  0
 14 35  1  0
 15 36  1  0
 16 37  1  0
 17 38  1  6
 18 39  1  0
 18 40  1  0
M  END
