
     RDKit          3D

 37 38  0  0  0  0  0  0  0  0999 V2000
    2.7390   -1.4385   -0.8710 C   0  0  0  0  0  0  0  0  0  0  0  0
    1.6193   -0.4364   -1.1757 C   0  0  2  0  0  0  0  0  0  0  0  0
    2.0685    0.8864   -0.7367 N   0  0  0  0  0  0  0  0  0  0  0  0
    0.2407   -0.9181   -0.6121 C   0  0  1  0  0  0  0  0  0  0  0  0
    0.1397   -1.1928    0.9148 C   0  0  0  0  0  0  0  0  0  0  0  0
    0.0634   -0.0402    1.8878 C   0  0  0  0  0  0  0  0  0  0  0  0
   -1.1790    0.3873    2.3833 C   0  0  0  0  0  0  0  0  0  0  0  0
   -1.2580    1.4440    3.2933 C   0  0  0  0  0  0  0  0  0  0  0  0
   -0.0934    2.0757    3.7208 C   0  0  0  0  0  0  0  0  0  0  0  0
   -0.1892    3.3810    4.8378 Cl  0  0  0  0  0  0  0  0  0  0  0  0
    1.1477    1.6568    3.2497 C   0  0  0  0  0  0  0  0  0  0  0  0
    1.2247    0.5990    2.3403 C   0  0  0  0  0  0  0  0  0  0  0  0
   -0.9513   -0.1572   -1.1972 C   0  0  0  0  0  0  0  0  0  0  0  0
   -1.8231   -0.8127   -2.0865 C   0  0  0  0  0  0  0  0  0  0  0  0
   -2.9214   -0.1453   -2.6460 C   0  0  0  0  0  0  0  0  0  0  0  0
   -3.1615    1.1910   -2.3213 C   0  0  0  0  0  0  0  0  0  0  0  0
   -2.3080    1.8539   -1.4424 C   0  0  0  0  0  0  0  0  0  0  0  0
   -1.2136    1.1852   -0.8883 C   0  0  0  0  0  0  0  0  0  0  0  0
   -3.7955   -0.8342   -3.5496 C   0  0  0  0  0  0  0  0  0  0  0  0
   -4.5003   -1.3954   -4.2814 N   0  0  0  0  0  0  0  0  0  0  0  0
    2.4573   -2.4479   -1.1892 H   0  0  0  0  0  0  0  0  0  0  0  0
    2.9820   -1.4728    0.1960 H   0  0  0  0  0  0  0  0  0  0  0  0
    3.6564   -1.1724   -1.4089 H   0  0  0  0  0  0  0  0  0  0  0  0
    1.5260   -0.3911   -2.2695 H   0  0  0  0  0  0  0  0  0  0  0  0
    2.9709    1.1018   -1.1608 H   0  0  0  0  0  0  0  0  0  0  0  0
    1.4281    1.5948   -1.0930 H   0  0  0  0  0  0  0  0  0  0  0  0
    0.1500   -1.9324   -1.0349 H   0  0  0  0  0  0  0  0  0  0  0  0
   -0.7537   -1.8142    1.0777 H   0  0  0  0  0  0  0  0  0  0  0  0
    0.9686   -1.8415    1.2258 H   0  0  0  0  0  0  0  0  0  0  0  0
   -2.0966   -0.0972    2.0554 H   0  0  0  0  0  0  0  0  0  0  0  0
   -2.2276    1.7662    3.6622 H   0  0  0  0  0  0  0  0  0  0  0  0
    2.0588    2.1463    3.5819 H   0  0  0  0  0  0  0  0  0  0  0  0
    2.2012    0.2830    1.9795 H   0  0  0  0  0  0  0  0  0  0  0  0
   -1.6489   -1.8557   -2.3495 H   0  0  0  0  0  0  0  0  0  0  0  0
   -4.0111    1.7217   -2.7463 H   0  0  0  0  0  0  0  0  0  0  0  0
   -2.4939    2.8935   -1.1817 H   0  0  0  0  0  0  0  0  0  0  0  0
   -0.5751    1.7313   -0.1963 H   0  0  0  0  0  0  0  0  0  0  0  0
  1  2  1  0
  2  3  1  0
  2  4  1  0
  4  5  1  0
  5  6  1  0
  6  7  2  0
  7  8  1  0
  8  9  2  0
  9 10  1  0
  9 11  1  0
 11 12  2  0
  4 13  1  0
 13 14  2  0
 14 15  1  0
 15 16  2  0
 16 17  1  0
 17 18  2  0
 15 19  1  0
 19 20  3  0
 12  6  1  0
 18 13  1  0
  1 21  1  0
  1 22  1  0
  1 23  1  0
  2 24  1  6
  3 25  1  0
  3 26  1  0
  4 27  1  6
  5 28  1  0
  5 29  1  0
  7 30  1  0
  8 31  1  0
 11 32  1  0
 12 33  1  0
 14 34  1  0
 16 35  1  0
 17 36  1  0
 18 37  1  0
M  END
