
     RDKit          3D

 27 27  0  0  0  0  0  0  0  0999 V2000
    1.4957   -3.0889   -2.0876 C   0  0  0  0  0  0  0  0  0  0  0  0
    0.0599   -2.6318   -2.3439 C   0  0  1  0  0  0  0  0  0  0  0  0
   -0.8495   -3.7170   -1.9968 N   0  0  0  0  0  0  0  0  0  0  0  0
   -0.2166   -1.3400   -1.6167 C   0  0  0  0  0  0  0  0  0  0  0  0
   -1.1169   -1.1154   -0.6432 C   0  0  0  0  0  0  0  0  0  0  0  0
   -1.3067    0.1899    0.0056 C   0  0  0  0  0  0  0  0  0  0  0  0
   -1.5367    0.2348    1.3853 C   0  0  0  0  0  0  0  0  0  0  0  0
   -1.7497    1.4554    2.0335 C   0  0  0  0  0  0  0  0  0  0  0  0
   -1.7588    2.6515    1.3085 C   0  0  0  0  0  0  0  0  0  0  0  0
   -1.9540    3.9639    2.0077 C   0  0  0  0  0  0  0  0  0  0  0  0
   -1.5306    2.6092   -0.0709 C   0  0  0  0  0  0  0  0  0  0  0  0
   -1.3167    1.3880   -0.7180 C   0  0  0  0  0  0  0  0  0  0  0  0
    2.2131   -2.3210   -2.3990 H   0  0  0  0  0  0  0  0  0  0  0  0
    1.7244   -3.9993   -2.6535 H   0  0  0  0  0  0  0  0  0  0  0  0
    1.6714   -3.2987   -1.0258 H   0  0  0  0  0  0  0  0  0  0  0  0
   -0.0518   -2.4376   -3.4172 H   0  0  0  0  0  0  0  0  0  0  0  0
   -1.8085   -3.4097   -2.1456 H   0  0  0  0  0  0  0  0  0  0  0  0
   -0.7533   -3.9380   -1.0081 H   0  0  0  0  0  0  0  0  0  0  0  0
    0.4133   -0.5130   -1.9443 H   0  0  0  0  0  0  0  0  0  0  0  0
   -1.7467   -1.9145   -0.2634 H   0  0  0  0  0  0  0  0  0  0  0  0
   -1.5399   -0.6803    1.9730 H   0  0  0  0  0  0  0  0  0  0  0  0
   -1.9103    1.4638    3.1092 H   0  0  0  0  0  0  0  0  0  0  0  0
   -0.9873    4.3649    2.3273 H   0  0  0  0  0  0  0  0  0  0  0  0
   -2.5969    3.8466    2.8864 H   0  0  0  0  0  0  0  0  0  0  0  0
   -2.4378    4.6906    1.3466 H   0  0  0  0  0  0  0  0  0  0  0  0
   -1.5235    3.5268   -0.6549 H   0  0  0  0  0  0  0  0  0  0  0  0
   -1.1667    1.3852   -1.7947 H   0  0  0  0  0  0  0  0  0  0  0  0
  1  2  1  0
  2  3  1  0
  2  4  1  0
  4  5  2  0
  5  6  1  0
  6  7  2  0
  7  8  1  0
  8  9  2  0
  9 10  1  0
  9 11  1  0
 11 12  2  0
 12  6  1  0
  1 13  1  0
  1 14  1  0
  1 15  1  0
  2 16  1  6
  3 17  1  0
  3 18  1  0
  4 19  1  0
  5 20  1  0
  7 21  1  0
  8 22  1  0
 10 23  1  0
 10 24  1  0
 10 25  1  0
 11 26  1  0
 12 27  1  0
M  END
