
     RDKit          3D

 49 52  0  0  0  0  0  0  0  0999 V2000
   -1.6023    0.5839    1.8232 N   0  0  0  0  0  0  0  0  0  0  0  0
   -0.5164   -0.0053    1.0160 C   0  0  1  0  0  0  0  0  0  0  0  0
    0.7912   -0.1950    1.8094 C   0  0  0  0  0  0  0  0  0  0  0  0
    1.4675    1.1103    2.1648 C   0  0  0  0  0  0  0  0  0  0  0  0
    1.3963    1.6150    3.4724 C   0  0  0  0  0  0  0  0  0  0  0  0
    2.0099    2.8263    3.7943 C   0  0  0  0  0  0  0  0  0  0  0  0
    2.6952    3.5306    2.8121 C   0  0  0  0  0  0  0  0  0  0  0  0
    3.2829    4.6934    3.1223 F   0  0  0  0  0  0  0  0  0  0  0  0
    2.7796    3.0467    1.5123 C   0  0  0  0  0  0  0  0  0  0  0  0
    2.1665    1.8360    1.1870 C   0  0  0  0  0  0  0  0  0  0  0  0
   -1.0018   -1.3631    0.4894 C   0  0  0  0  0  0  0  0  0  0  0  0
   -0.8255   -2.4068    1.1232 O   0  0  0  0  0  0  0  0  0  0  0  0
   -1.7455   -1.3674   -0.8366 C   0  0  0  0  0  0  0  0  0  0  0  0
   -0.8907   -1.7661   -2.0569 C   0  0  0  0  0  0  0  0  0  0  0  0
    0.3093   -0.8083   -2.2660 C   0  0  0  0  0  0  0  0  0  0  0  0
    1.1075   -1.1985   -3.5230 C   0  0  0  0  0  0  0  0  0  0  0  0
    1.6287   -2.6363   -3.3651 C   0  0  0  0  0  0  0  0  0  0  0  0
    0.4495   -3.6072   -3.1889 C   0  0  0  0  0  0  0  0  0  0  0  0
   -0.4657   -3.5222   -4.4201 C   0  0  0  0  0  0  0  0  0  0  0  0
   -0.9945   -2.0888   -4.5825 C   0  0  0  0  0  0  0  0  0  0  0  0
    0.1893   -1.1242   -4.7527 C   0  0  0  0  0  0  0  0  0  0  0  0
   -1.7869   -1.6979   -3.3246 C   0  0  0  0  0  0  0  0  0  0  0  0
   -0.3471   -3.2127   -1.9320 C   0  0  0  0  0  0  0  0  0  0  0  0
   -1.2727    1.4636    2.2237 H   0  0  0  0  0  0  0  0  0  0  0  0
   -1.7823   -0.0287    2.6220 H   0  0  0  0  0  0  0  0  0  0  0  0
   -0.3320    0.6484    0.1568 H   0  0  0  0  0  0  0  0  0  0  0  0
    1.4983   -0.8001    1.2257 H   0  0  0  0  0  0  0  0  0  0  0  0
    0.6035   -0.7757    2.7230 H   0  0  0  0  0  0  0  0  0  0  0  0
    0.8656    1.0671    4.2484 H   0  0  0  0  0  0  0  0  0  0  0  0
    1.9606    3.2231    4.8032 H   0  0  0  0  0  0  0  0  0  0  0  0
    3.3217    3.6140    0.7627 H   0  0  0  0  0  0  0  0  0  0  0  0
    2.2401    1.4623    0.1680 H   0  0  0  0  0  0  0  0  0  0  0  0
   -2.1869   -0.3741   -0.9864 H   0  0  0  0  0  0  0  0  0  0  0  0
   -2.5942   -2.0546   -0.7242 H   0  0  0  0  0  0  0  0  0  0  0  0
   -0.0436    0.2264   -2.3615 H   0  0  0  0  0  0  0  0  0  0  0  0
    0.9806   -0.8373   -1.3992 H   0  0  0  0  0  0  0  0  0  0  0  0
    1.9519   -0.5119   -3.6508 H   0  0  0  0  0  0  0  0  0  0  0  0
    2.2190   -2.9196   -4.2453 H   0  0  0  0  0  0  0  0  0  0  0  0
    2.2988   -2.6996   -2.4989 H   0  0  0  0  0  0  0  0  0  0  0  0
    0.8270   -4.6301   -3.0799 H   0  0  0  0  0  0  0  0  0  0  0  0
    0.0864   -3.8217   -5.3196 H   0  0  0  0  0  0  0  0  0  0  0  0
   -1.3037   -4.2218   -4.3132 H   0  0  0  0  0  0  0  0  0  0  0  0
   -1.6461   -2.0331   -5.4615 H   0  0  0  0  0  0  0  0  0  0  0  0
    0.7535   -1.3797   -5.6582 H   0  0  0  0  0  0  0  0  0  0  0  0
   -0.1779   -0.0990   -4.8852 H   0  0  0  0  0  0  0  0  0  0  0  0
   -2.1900   -0.6842   -3.4476 H   0  0  0  0  0  0  0  0  0  0  0  0
   -2.6499   -2.3674   -3.2132 H   0  0  0  0  0  0  0  0  0  0  0  0
    0.3078   -3.3049   -1.0573 H   0  0  0  0  0  0  0  0  0  0  0  0
   -1.1756   -3.9171   -1.7839 H   0  0  0  0  0  0  0  0  0  0  0  0
  1  2  1  0
  2  3  1  0
  3  4  1  0
  4  5  2  0
  5  6  1  0
  6  7  2  0
  7  8  1  0
  7  9  1  0
  9 10  2  0
  2 11  1  0
 11 12  2  0
 11 13  1  0
 13 14  1  0
 14 15  1  0
 15 16  1  0
 16 17  1  0
 17 18  1  0
 18 19  1  0
 19 20  1  0
 20 21  1  0
 20 22  1  0
 18 23  1  0
 10  4  1  0
 22 14  1  0
 23 14  1  0
 21 16  1  0
  1 24  1  0
  1 25  1  0
  2 26  1  6
  3 27  1  0
  3 28  1  0
  5 29  1  0
  6 30  1  0
  9 31  1  0
 10 32  1  0
 13 33  1  0
 13 34  1  0
 15 35  1  0
 15 36  1  0
 16 37  1  0
 17 38  1  0
 17 39  1  0
 18 40  1  0
 19 41  1  0
 19 42  1  0
 20 43  1  0
 21 44  1  0
 21 45  1  0
 22 46  1  0
 22 47  1  0
 23 48  1  0
 23 49  1  0
M  END
