
     RDKit          3D

 22 22  0  0  0  0  0  0  0  0999 V2000
   -0.0311   -1.7252    2.8425 N   0  0  0  0  0  0  0  0  0  0  0  0
    0.5253   -0.9183    1.7368 C   0  0  2  0  0  0  0  0  0  0  0  0
   -0.5258    0.0662    1.1991 C   0  0  0  0  0  0  0  0  0  0  0  0
    0.0259    1.0444    0.1896 C   0  0  0  0  0  0  0  0  0  0  0  0
   -0.2738    0.9096   -1.1729 C   0  0  0  0  0  0  0  0  0  0  0  0
    0.2459    1.8109   -2.1035 C   0  0  0  0  0  0  0  0  0  0  0  0
    1.0680    2.8541   -1.6826 C   0  0  0  0  0  0  0  0  0  0  0  0
    1.3713    2.9980   -0.3306 C   0  0  0  0  0  0  0  0  0  0  0  0
    0.8532    2.0984    0.6021 C   0  0  0  0  0  0  0  0  0  0  0  0
    0.9786   -1.8683    0.6342 C   0  0  0  0  0  0  0  0  0  0  0  0
    2.1491   -2.0218    0.2944 O   0  0  0  0  0  0  0  0  0  0  0  0
   -0.9406   -2.1070    2.5858 H   0  0  0  0  0  0  0  0  0  0  0  0
   -0.1963   -1.1199    3.6469 H   0  0  0  0  0  0  0  0  0  0  0  0
    1.4101   -0.3884    2.1074 H   0  0  0  0  0  0  0  0  0  0  0  0
   -0.9544    0.6460    2.0280 H   0  0  0  0  0  0  0  0  0  0  0  0
   -1.3671   -0.4819    0.7534 H   0  0  0  0  0  0  0  0  0  0  0  0
   -0.9118    0.1025   -1.5250 H   0  0  0  0  0  0  0  0  0  0  0  0
    0.0124    1.6974   -3.1590 H   0  0  0  0  0  0  0  0  0  0  0  0
    1.4752    3.5528   -2.4087 H   0  0  0  0  0  0  0  0  0  0  0  0
    2.0155    3.8098   -0.0025 H   0  0  0  0  0  0  0  0  0  0  0  0
    1.1033    2.2265    1.6530 H   0  0  0  0  0  0  0  0  0  0  0  0
    0.1761   -2.4454    0.1428 H   0  0  0  0  0  0  0  0  0  0  0  0
  1  2  1  0
  2  3  1  0
  3  4  1  0
  4  5  2  0
  5  6  1  0
  6  7  2  0
  7  8  1  0
  8  9  2  0
  2 10  1  0
 10 11  2  0
  9  4  1  0
  1 12  1  0
  1 13  1  0
  2 14  1  1
  3 15  1  0
  3 16  1  0
  5 17  1  0
  6 18  1  0
  7 19  1  0
  8 20  1  0
  9 21  1  0
 10 22  1  0
M  END
