
     RDKit          3D

 23 22  0  0  0  0  0  0  0  0999 V2000
   -1.1182   -0.7787    3.4827 C   0  0  0  0  0  0  0  0  0  0  0  0
    0.1151   -1.7993    2.6382 S   0  0  0  0  0  0  0  0  0  0  0  0
    1.3112   -0.4946    2.1626 C   0  0  0  0  0  0  0  0  0  0  0  0
    0.8417    0.4059    0.9899 C   0  0  1  0  0  0  0  0  0  0  0  0
    1.3398    1.7750    1.2357 N   0  0  0  0  0  0  0  0  0  0  0  0
    1.3364   -0.0852   -0.4056 C   0  0  0  0  0  0  0  0  0  0  0  0
    0.8349    0.8134   -1.5478 C   0  0  0  0  0  0  0  0  0  0  0  0
    0.9164   -1.5268   -0.7144 C   0  0  0  0  0  0  0  0  0  0  0  0
   -0.6582   -0.2262    4.3059 H   0  0  0  0  0  0  0  0  0  0  0  0
   -1.5902   -0.0806    2.7877 H   0  0  0  0  0  0  0  0  0  0  0  0
   -1.8949   -1.4283    3.8954 H   0  0  0  0  0  0  0  0  0  0  0  0
    2.2654   -0.9751    1.9184 H   0  0  0  0  0  0  0  0  0  0  0  0
    1.4924    0.0941    3.0698 H   0  0  0  0  0  0  0  0  0  0  0  0
   -0.2525    0.4694    0.9735 H   0  0  0  0  0  0  0  0  0  0  0  0
    0.9573    2.4122    0.5383 H   0  0  0  0  0  0  0  0  0  0  0  0
    0.9903    2.1121    2.1325 H   0  0  0  0  0  0  0  0  0  0  0  0
    2.4346   -0.0544   -0.4207 H   0  0  0  0  0  0  0  0  0  0  0  0
   -0.2575    0.8919   -1.5375 H   0  0  0  0  0  0  0  0  0  0  0  0
    1.2534    1.8222   -1.4836 H   0  0  0  0  0  0  0  0  0  0  0  0
    1.1347    0.4106   -2.5217 H   0  0  0  0  0  0  0  0  0  0  0  0
   -0.1688   -1.6501   -0.6351 H   0  0  0  0  0  0  0  0  0  0  0  0
    1.2116   -1.8099   -1.7310 H   0  0  0  0  0  0  0  0  0  0  0  0
    1.4019   -2.2382   -0.0407 H   0  0  0  0  0  0  0  0  0  0  0  0
  1  2  1  0
  2  3  1  0
  3  4  1  0
  4  5  1  0
  4  6  1  0
  6  7  1  0
  6  8  1  0
  1  9  1  0
  1 10  1  0
  1 11  1  0
  3 12  1  0
  3 13  1  0
  4 14  1  6
  5 15  1  0
  5 16  1  0
  6 17  1  0
  7 18  1  0
  7 19  1  0
  7 20  1  0
  8 21  1  0
  8 22  1  0
  8 23  1  0
M  END
