
     RDKit          3D

 55 54  0  0  0  0  0  0  0  0999 V2000
    3.0432    0.1445    5.3541 C   0  0  0  0  0  0  0  0  0  0  0  0
    2.5211   -0.7990    4.2819 C   0  0  0  0  0  0  0  0  0  0  0  0
    1.0310   -0.6187    3.9835 C   0  0  0  0  0  0  0  0  0  0  0  0
    0.6194    0.7681    3.4786 C   0  0  0  0  0  0  0  0  0  0  0  0
    1.3422    1.2596    2.2209 C   0  0  0  0  0  0  0  0  0  0  0  0
    1.1320    0.3520    1.0068 C   0  0  0  0  0  0  0  0  0  0  0  0
    1.7738    0.9494   -0.2485 C   0  0  0  0  0  0  0  0  0  0  0  0
    1.4430    0.1691   -1.5253 C   0  0  0  0  0  0  0  0  0  0  0  0
    1.9954   -1.2567   -1.5226 C   0  0  0  0  0  0  0  0  0  0  0  0
    1.9180   -1.9664   -2.8806 C   0  0  0  0  0  0  0  0  0  0  0  0
    0.5084   -2.3786   -3.3212 C   0  0  0  0  0  0  0  0  0  0  0  0
   -0.2749   -1.2728   -3.9701 C   0  0  0  0  0  0  0  0  0  0  0  0
   -1.4869   -0.8722   -3.5549 C   0  0  0  0  0  0  0  0  0  0  0  0
   -2.2916    0.2118   -4.2187 C   0  0  0  0  0  0  0  0  0  0  0  0
   -2.3492    1.4907   -3.3874 C   0  0  0  0  0  0  0  0  0  0  0  0
   -3.2305    1.3850   -2.1535 C   0  0  0  0  0  0  0  0  0  0  0  0
   -3.9422    0.4042   -1.9217 O   0  0  0  0  0  0  0  0  0  0  0  0
   -3.1769    2.5784   -1.1863 C   0  0  2  0  0  0  0  0  0  0  0  0
   -2.2092    2.2678   -0.0532 C   0  0  0  0  0  0  0  0  0  0  0  0
   -4.5305    2.8438   -0.6748 N   0  0  0  0  0  0  0  0  0  0  0  0
    3.0088    1.1866    5.0232 H   0  0  0  0  0  0  0  0  0  0  0  0
    4.0853   -0.0942    5.5893 H   0  0  0  0  0  0  0  0  0  0  0  0
    2.4592    0.0537    6.2754 H   0  0  0  0  0  0  0  0  0  0  0  0
    2.6820   -1.8304    4.6183 H   0  0  0  0  0  0  0  0  0  0  0  0
    3.1121   -0.6775    3.3676 H   0  0  0  0  0  0  0  0  0  0  0  0
    0.4596   -0.8347    4.8952 H   0  0  0  0  0  0  0  0  0  0  0  0
    0.7258   -1.3775    3.2532 H   0  0  0  0  0  0  0  0  0  0  0  0
   -0.4603    0.7552    3.2825 H   0  0  0  0  0  0  0  0  0  0  0  0
    0.7695    1.5042    4.2774 H   0  0  0  0  0  0  0  0  0  0  0  0
    2.4139    1.3724    2.4202 H   0  0  0  0  0  0  0  0  0  0  0  0
    0.9654    2.2635    1.9872 H   0  0  0  0  0  0  0  0  0  0  0  0
    1.5678   -0.6326    1.2041 H   0  0  0  0  0  0  0  0  0  0  0  0
    0.0584    0.2064    0.8399 H   0  0  0  0  0  0  0  0  0  0  0  0
    1.4217    1.9800   -0.3799 H   0  0  0  0  0  0  0  0  0  0  0  0
    2.8615    1.0024   -0.1181 H   0  0  0  0  0  0  0  0  0  0  0  0
    1.8563    0.7181   -2.3800 H   0  0  0  0  0  0  0  0  0  0  0  0
    0.3562    0.1518   -1.6474 H   0  0  0  0  0  0  0  0  0  0  0  0
    1.4761   -1.8621   -0.7708 H   0  0  0  0  0  0  0  0  0  0  0  0
    3.0510   -1.2232   -1.2242 H   0  0  0  0  0  0  0  0  0  0  0  0
    2.5144   -2.8845   -2.7963 H   0  0  0  0  0  0  0  0  0  0  0  0
    2.4035   -1.3564   -3.6524 H   0  0  0  0  0  0  0  0  0  0  0  0
   -0.0372   -2.8112   -2.4740 H   0  0  0  0  0  0  0  0  0  0  0  0
    0.6057   -3.1783   -4.0666 H   0  0  0  0  0  0  0  0  0  0  0  0
    0.1797   -0.8035   -4.8403 H   0  0  0  0  0  0  0  0  0  0  0  0
   -1.9507   -1.3552   -2.6951 H   0  0  0  0  0  0  0  0  0  0  0  0
   -3.3004   -0.1690   -4.4172 H   0  0  0  0  0  0  0  0  0  0  0  0
   -1.8535    0.4524   -5.1954 H   0  0  0  0  0  0  0  0  0  0  0  0
   -2.7620    2.2975   -4.0040 H   0  0  0  0  0  0  0  0  0  0  0  0
   -1.3415    1.7845   -3.0717 H   0  0  0  0  0  0  0  0  0  0  0  0
   -2.8419    3.4658   -1.7329 H   0  0  0  0  0  0  0  0  0  0  0  0
   -2.5134    1.3746    0.5045 H   0  0  0  0  0  0  0  0  0  0  0  0
   -2.1414    3.1039    0.6508 H   0  0  0  0  0  0  0  0  0  0  0  0
   -1.2055    2.0802   -0.4475 H   0  0  0  0  0  0  0  0  0  0  0  0
   -4.4804    3.3609    0.2008 H   0  0  0  0  0  0  0  0  0  0  0  0
   -4.9615    1.9417   -0.4467 H   0  0  0  0  0  0  0  0  0  0  0  0
  1  2  1  0
  2  3  1  0
  3  4  1  0
  4  5  1  0
  5  6  1  0
  6  7  1  0
  7  8  1  0
  8  9  1  0
  9 10  1  0
 10 11  1  0
 11 12  1  0
 12 13  2  0
 13 14  1  0
 14 15  1  0
 15 16  1  0
 16 17  2  0
 16 18  1  0
 18 19  1  0
 18 20  1  0
  1 21  1  0
  1 22  1  0
  1 23  1  0
  2 24  1  0
  2 25  1  0
  3 26  1  0
  3 27  1  0
  4 28  1  0
  4 29  1  0
  5 30  1  0
  5 31  1  0
  6 32  1  0
  6 33  1  0
  7 34  1  0
  7 35  1  0
  8 36  1  0
  8 37  1  0
  9 38  1  0
  9 39  1  0
 10 40  1  0
 10 41  1  0
 11 42  1  0
 11 43  1  0
 12 44  1  0
 13 45  1  0
 14 46  1  0
 14 47  1  0
 15 48  1  0
 15 49  1  0
 18 50  1  6
 19 51  1  0
 19 52  1  0
 19 53  1  0
 20 54  1  0
 20 55  1  0
M  END
