
     RDKit          3D

 23 22  0  0  0  0  0  0  0  0999 V2000
    1.2545   -0.4772    1.0764 N   0  0  0  0  0  0  0  0  0  0  0  0
    2.2036   -0.3866    0.0002 C   0  0  1  0  0  0  0  0  0  0  0  0
    1.7862   -1.3346   -1.1239 C   0  0  0  0  0  0  0  0  0  0  0  0
    0.0545   -0.9148   -1.8204 Se  0  0  0  0  0  2  0  0  0  0  0  0
   -1.1803   -0.2523   -0.5257 C   0  0  0  0  0  0  0  0  0  0  0  0
   -2.3484    0.3922   -1.2839 C   0  0  2  0  0  0  0  0  0  0  0  0
   -2.9708   -0.6039   -2.1154 N   0  0  0  0  0  0  0  0  0  0  0  0
   -1.8471    1.4851   -2.1413 C   0  0  0  0  0  0  0  0  0  0  0  0
   -1.2725    2.4583   -1.6544 O   0  0  0  0  0  0  0  0  0  0  0  0
    2.2703    0.9980   -0.5689 C   0  0  0  0  0  0  0  0  0  0  0  0
    1.5696    1.8882   -0.1174 O   0  0  0  0  0  0  0  0  0  0  0  0
    1.2250    0.4525    1.5823 H   0  0  0  0  0  0  0  0  0  0  0  0
    1.4732   -1.2236    1.7568 H   0  0  0  0  0  0  0  0  0  0  0  0
    3.2018   -0.6357    0.3766 H   0  0  0  0  0  0  0  0  0  0  0  0
    1.9177   -2.3821   -0.8160 H   0  0  0  0  0  0  0  0  0  0  0  0
    2.5329   -1.1536   -1.9488 H   0  0  0  0  0  0  0  0  0  0  0  0
   -1.6483   -1.0934    0.0539 H   0  0  0  0  0  0  0  0  0  0  0  0
   -0.7558    0.4553    0.2084 H   0  0  0  0  0  0  0  0  0  0  0  0
   -3.1013    0.7895   -0.5770 H   0  0  0  0  0  0  0  0  0  0  0  0
   -2.3437   -0.7600   -2.9466 H   0  0  0  0  0  0  0  0  0  0  0  0
   -3.0732   -1.4995   -1.5749 H   0  0  0  0  0  0  0  0  0  0  0  0
   -1.9687    1.4614   -3.2022 H   0  0  0  0  0  0  0  0  0  0  0  0
    2.9674    1.1433   -1.3871 H   0  0  0  0  0  0  0  0  0  0  0  0
  1  2  1  0
  2  3  1  0
  3  4  1  0
  4  5  1  0
  5  6  1  0
  6  7  1  0
  6  8  1  0
  8  9  2  0
  2 10  1  0
 10 11  2  0
  1 12  1  0
  1 13  1  0
  2 14  1  1
  3 15  1  0
  3 16  1  0
  5 17  1  0
  5 18  1  0
  6 19  1  1
  7 20  1  0
  7 21  1  0
  8 22  1  0
 10 23  1  0
M  END
