
     RDKit          3D

 20 19  0  0  0  0  0  0  0  0999 V2000
   -3.1422    1.3263    1.4885 C   0  0  0  0  0  0  0  0  0  0  0  0
   -1.4694    1.4952    2.1548 S   0  0  0  0  0  4  0  0  0  0  0  0
   -1.4600    0.8928    3.5292 O   0  0  0  0  0  0  0  0  0  0  0  0
   -0.6967    0.2954    1.0188 C   0  0  0  0  0  0  0  0  0  0  0  0
    0.7729    0.0381    1.3598 C   0  0  0  0  0  0  0  0  0  0  0  0
    1.7805    1.0778    0.8432 C   0  0  2  0  0  0  0  0  0  0  0  0
    1.5206    2.4330    1.3450 N   0  0  0  0  0  0  0  0  0  0  0  0
    1.8468    1.1176   -0.6831 C   0  0  0  0  0  0  0  0  0  0  0  0
    1.3397    0.2811   -1.4261 O   0  0  0  0  0  0  0  0  0  0  0  0
   -3.1518    1.6413    0.4425 H   0  0  0  0  0  0  0  0  0  0  0  0
   -3.8125    1.9682    2.0649 H   0  0  0  0  0  0  0  0  0  0  0  0
   -3.4749    0.2890    1.5714 H   0  0  0  0  0  0  0  0  0  0  0  0
   -0.8279    0.6576   -0.0043 H   0  0  0  0  0  0  0  0  0  0  0  0
   -1.2525   -0.6429    1.1224 H   0  0  0  0  0  0  0  0  0  0  0  0
    1.0447   -0.9333    0.9250 H   0  0  0  0  0  0  0  0  0  0  0  0
    0.8956   -0.0747    2.4447 H   0  0  0  0  0  0  0  0  0  0  0  0
    2.7799    0.7796    1.1826 H   0  0  0  0  0  0  0  0  0  0  0  0
    2.3497    3.0164    1.2294 H   0  0  0  0  0  0  0  0  0  0  0  0
    1.3582    2.3911    2.3549 H   0  0  0  0  0  0  0  0  0  0  0  0
    2.4574    1.9345   -1.1064 H   0  0  0  0  0  0  0  0  0  0  0  0
  1  2  1  0
  2  3  2  0
  2  4  1  0
  4  5  1  0
  5  6  1  0
  6  7  1  0
  6  8  1  0
  8  9  2  0
  1 10  1  0
  1 11  1  0
  1 12  1  0
  4 13  1  0
  4 14  1  0
  5 15  1  0
  5 16  1  0
  6 17  1  1
  7 18  1  0
  7 19  1  0
  8 20  1  0
M  END
