
     RDKit          3D

 24 24  0  0  0  0  0  0  0  0999 V2000
    2.0241    2.0278    0.1888 C   0  0  0  0  0  0  0  0  0  0  0  0
    1.9063    0.5085    0.0914 C   0  0  1  0  0  0  0  0  0  0  0  0
    3.1496   -0.0439   -0.4423 N   0  0  0  0  0  0  0  0  0  0  0  0
    1.6671   -0.0912    1.4470 C   0  0  0  0  0  0  0  0  0  0  0  0
    0.5655   -0.7280    1.8778 C   0  0  0  0  0  0  0  0  0  0  0  0
   -0.6426   -0.9395    1.0818 C   0  0  0  0  0  0  0  0  0  0  0  0
   -1.5286    0.1163    0.8362 C   0  0  0  0  0  0  0  0  0  0  0  0
   -2.6790   -0.0950    0.0723 C   0  0  0  0  0  0  0  0  0  0  0  0
   -2.9435   -1.3626   -0.4436 C   0  0  0  0  0  0  0  0  0  0  0  0
   -4.3593   -1.6230   -1.3857 Cl  0  0  0  0  0  0  0  0  0  0  0  0
   -2.0690   -2.4207   -0.2015 C   0  0  0  0  0  0  0  0  0  0  0  0
   -0.9185   -2.2091    0.5626 C   0  0  0  0  0  0  0  0  0  0  0  0
    2.2032    2.4707   -0.7975 H   0  0  0  0  0  0  0  0  0  0  0  0
    2.8462    2.3326    0.8474 H   0  0  0  0  0  0  0  0  0  0  0  0
    1.1004    2.4654    0.5843 H   0  0  0  0  0  0  0  0  0  0  0  0
    1.0990    0.2657   -0.6072 H   0  0  0  0  0  0  0  0  0  0  0  0
    3.0158   -1.0420   -0.6005 H   0  0  0  0  0  0  0  0  0  0  0  0
    3.3281    0.3617   -1.3595 H   0  0  0  0  0  0  0  0  0  0  0  0
    2.4966    0.0022    2.1479 H   0  0  0  0  0  0  0  0  0  0  0  0
    0.5377   -1.1348    2.8861 H   0  0  0  0  0  0  0  0  0  0  0  0
   -1.3286    1.1064    1.2395 H   0  0  0  0  0  0  0  0  0  0  0  0
   -3.3617    0.7296   -0.1139 H   0  0  0  0  0  0  0  0  0  0  0  0
   -2.2754   -3.4092   -0.6027 H   0  0  0  0  0  0  0  0  0  0  0  0
   -0.2385   -3.0379    0.7464 H   0  0  0  0  0  0  0  0  0  0  0  0
  1  2  1  0
  2  3  1  0
  2  4  1  0
  4  5  2  3
  5  6  1  0
  6  7  2  0
  7  8  1  0
  8  9  2  0
  9 10  1  0
  9 11  1  0
 11 12  2  0
 12  6  1  0
  1 13  1  0
  1 14  1  0
  1 15  1  0
  2 16  1  6
  3 17  1  0
  3 18  1  0
  4 19  1  0
  5 20  1  0
  7 21  1  0
  8 22  1  0
 11 23  1  0
 12 24  1  0
M  END
