
     RDKit          3D

 22 21  0  0  0  0  0  0  0  0999 V2000
   -3.7645    1.3757    1.0865 N   0  0  0  0  0  0  0  0  0  0  0  0
   -2.5879    0.9535    0.3278 C   0  0  0  0  0  0  0  0  0  0  0  0
   -2.6031   -0.5627    0.1467 C   0  0  0  0  0  0  0  0  0  0  0  0
   -1.5282   -1.1030   -0.8063 C   0  0  0  0  0  0  0  0  0  0  0  0
   -0.0842   -0.9736   -0.3017 C   0  0  2  0  0  0  0  0  0  0  0  0
    0.4034    0.4184   -0.3883 N   0  0  0  0  0  0  0  0  0  0  0  0
    0.8767   -1.8765   -1.1089 C   0  0  0  0  0  0  0  0  0  0  0  0
    2.1573   -1.9150   -0.6181 N   0  0  0  0  0  0  0  0  0  0  0  0
    0.5810   -2.4935   -2.1248 O   0  0  0  0  0  0  0  0  0  0  0  0
   -3.7385    0.9538    2.0137 H   0  0  0  0  0  0  0  0  0  0  0  0
   -3.7196    2.3835    1.2322 H   0  0  0  0  0  0  0  0  0  0  0  0
   -2.5947    1.4539   -0.6460 H   0  0  0  0  0  0  0  0  0  0  0  0
   -1.6971    1.2742    0.8743 H   0  0  0  0  0  0  0  0  0  0  0  0
   -3.5796   -0.8634   -0.2565 H   0  0  0  0  0  0  0  0  0  0  0  0
   -2.5060   -1.0559    1.1222 H   0  0  0  0  0  0  0  0  0  0  0  0
   -1.7485   -2.1669   -0.9678 H   0  0  0  0  0  0  0  0  0  0  0  0
   -1.6337   -0.6277   -1.7905 H   0  0  0  0  0  0  0  0  0  0  0  0
   -0.0348   -1.3021    0.7435 H   0  0  0  0  0  0  0  0  0  0  0  0
    1.4091    0.4241   -0.2130 H   0  0  0  0  0  0  0  0  0  0  0  0
    0.3087    0.7276   -1.3586 H   0  0  0  0  0  0  0  0  0  0  0  0
    2.3406   -1.6936    0.3513 H   0  0  0  0  0  0  0  0  0  0  0  0
    2.7787   -2.5751   -1.0694 H   0  0  0  0  0  0  0  0  0  0  0  0
  1  2  1  0
  2  3  1  0
  3  4  1  0
  4  5  1  0
  5  6  1  0
  5  7  1  0
  7  8  1  0
  7  9  2  0
  1 10  1  0
  1 11  1  0
  2 12  1  0
  2 13  1  0
  3 14  1  0
  3 15  1  0
  4 16  1  0
  4 17  1  0
  5 18  1  1
  6 19  1  0
  6 20  1  0
  8 21  1  0
  8 22  1  0
M  END
