
     RDKit          3D

 37 37  0  0  0  0  0  0  0  0999 V2000
    4.5713   -1.0631    0.0968 C   0  0  0  0  0  0  0  0  0  0  0  0
    3.1335   -1.5232    0.3370 C   0  0  1  0  0  0  0  0  0  0  0  0
    3.1029   -2.9742    0.5245 N   0  0  0  0  0  0  0  0  0  0  0  0
    2.5584   -0.8633    1.5575 C   0  0  0  0  0  0  0  0  0  0  0  0
    1.5224   -0.0081    1.6194 C   0  0  0  0  0  0  0  0  0  0  0  0
    0.7127    0.4627    0.5009 C   0  0  0  0  0  0  0  0  0  0  0  0
   -0.1484   -0.3608   -0.1463 C   0  0  0  0  0  0  0  0  0  0  0  0
   -0.4300   -1.7934    0.2458 C   0  0  0  0  0  0  0  0  0  0  0  0
   -0.9512    0.0814   -1.3497 C   0  0  0  0  0  0  0  0  0  0  0  0
   -0.5023    1.4073   -1.9494 C   0  0  0  0  0  0  0  0  0  0  0  0
   -0.2322    2.4190   -0.8473 C   0  0  0  0  0  0  0  0  0  0  0  0
    0.8874    1.9495    0.1211 C   0  0  0  0  0  0  0  0  0  0  0  0
    0.8202    2.8812    1.3538 C   0  0  0  0  0  0  0  0  0  0  0  0
    2.2610    2.1470   -0.5577 C   0  0  0  0  0  0  0  0  0  0  0  0
    5.2224   -1.2951    0.9480 H   0  0  0  0  0  0  0  0  0  0  0  0
    4.6136    0.0188   -0.0684 H   0  0  0  0  0  0  0  0  0  0  0  0
    4.9936   -1.5485   -0.7904 H   0  0  0  0  0  0  0  0  0  0  0  0
    2.5466   -1.2859   -0.5555 H   0  0  0  0  0  0  0  0  0  0  0  0
    3.4079   -3.4232   -0.3371 H   0  0  0  0  0  0  0  0  0  0  0  0
    3.7842   -3.2402    1.2326 H   0  0  0  0  0  0  0  0  0  0  0  0
    3.0504   -1.1055    2.4979 H   0  0  0  0  0  0  0  0  0  0  0  0
    1.2474    0.3969    2.5919 H   0  0  0  0  0  0  0  0  0  0  0  0
   -0.0100   -2.0764    1.2140 H   0  0  0  0  0  0  0  0  0  0  0  0
   -0.0317   -2.4756   -0.5122 H   0  0  0  0  0  0  0  0  0  0  0  0
   -1.5114   -1.9545    0.3180 H   0  0  0  0  0  0  0  0  0  0  0  0
   -0.8982   -0.6847   -2.1330 H   0  0  0  0  0  0  0  0  0  0  0  0
   -2.0043    0.1595   -1.0504 H   0  0  0  0  0  0  0  0  0  0  0  0
   -1.2794    1.7860   -2.6234 H   0  0  0  0  0  0  0  0  0  0  0  0
    0.3953    1.2585   -2.5607 H   0  0  0  0  0  0  0  0  0  0  0  0
   -1.1652    2.5832   -0.2901 H   0  0  0  0  0  0  0  0  0  0  0  0
    0.0296    3.3854   -1.2964 H   0  0  0  0  0  0  0  0  0  0  0  0
   -0.1031    2.7211    1.9227 H   0  0  0  0  0  0  0  0  0  0  0  0
    0.8457    3.9348    1.0509 H   0  0  0  0  0  0  0  0  0  0  0  0
    1.6649    2.7260    2.0343 H   0  0  0  0  0  0  0  0  0  0  0  0
    2.3716    3.1700   -0.9355 H   0  0  0  0  0  0  0  0  0  0  0  0
    3.0842    1.9750    0.1447 H   0  0  0  0  0  0  0  0  0  0  0  0
    2.4020    1.4634   -1.4020 H   0  0  0  0  0  0  0  0  0  0  0  0
  1  2  1  0
  2  3  1  0
  2  4  1  0
  4  5  2  3
  5  6  1  0
  6  7  2  0
  7  8  1  0
  7  9  1  0
  9 10  1  0
 10 11  1  0
 11 12  1  0
 12 13  1  0
 12 14  1  0
 12  6  1  0
  1 15  1  0
  1 16  1  0
  1 17  1  0
  2 18  1  6
  3 19  1  0
  3 20  1  0
  4 21  1  0
  5 22  1  0
  8 23  1  0
  8 24  1  0
  8 25  1  0
  9 26  1  0
  9 27  1  0
 10 28  1  0
 10 29  1  0
 11 30  1  0
 11 31  1  0
 13 32  1  0
 13 33  1  0
 13 34  1  0
 14 35  1  0
 14 36  1  0
 14 37  1  0
M  END
