
     RDKit          3D

 22 22  0  0  0  0  0  0  0  0999 V2000
   -0.6197    1.1364    2.5028 N   0  0  0  0  0  0  0  0  0  0  0  0
    0.0030   -0.1270    2.0364 C   0  0  2  0  0  0  0  0  0  0  0  0
   -0.3716   -0.3234    0.6210 C   0  0  0  0  0  0  0  0  0  0  0  0
   -0.6779   -0.4867   -0.5294 C   0  0  0  0  0  0  0  0  0  0  0  0
   -1.0474   -0.6875   -1.8963 C   0  0  0  0  0  0  0  0  0  0  0  0
   -0.5659    0.1762   -2.8856 C   0  0  0  0  0  0  0  0  0  0  0  0
   -0.9285   -0.0214   -4.2195 C   0  0  0  0  0  0  0  0  0  0  0  0
   -1.7678   -1.0793   -4.5524 C   0  0  0  0  0  0  0  0  0  0  0  0
   -2.1149   -1.2676   -5.8321 F   0  0  0  0  0  0  0  0  0  0  0  0
   -2.2520   -1.9443   -3.5772 C   0  0  0  0  0  0  0  0  0  0  0  0
   -1.8907   -1.7485   -2.2427 C   0  0  0  0  0  0  0  0  0  0  0  0
   -0.3315   -1.3973    2.8749 C   0  0  0  0  0  0  0  0  0  0  0  0
    0.0855   -1.2667    4.1571 F   0  0  0  0  0  0  0  0  0  0  0  0
    0.2744   -2.5000    2.3730 F   0  0  0  0  0  0  0  0  0  0  0  0
   -1.6646   -1.6396    2.9049 F   0  0  0  0  0  0  0  0  0  0  0  0
   -0.4115    1.8746    1.8313 H   0  0  0  0  0  0  0  0  0  0  0  0
   -1.6344    1.0199    2.4945 H   0  0  0  0  0  0  0  0  0  0  0  0
    1.0887    0.0159    2.0899 H   0  0  0  0  0  0  0  0  0  0  0  0
    0.0909    1.0028   -2.6254 H   0  0  0  0  0  0  0  0  0  0  0  0
   -0.5629    0.6400   -4.9984 H   0  0  0  0  0  0  0  0  0  0  0  0
   -2.9052   -2.7633   -3.8610 H   0  0  0  0  0  0  0  0  0  0  0  0
   -2.2687   -2.4254   -1.4799 H   0  0  0  0  0  0  0  0  0  0  0  0
  1  2  1  0
  2  3  1  0
  3  4  3  0
  4  5  1  0
  5  6  2  0
  6  7  1  0
  7  8  2  0
  8  9  1  0
  8 10  1  0
 10 11  2  0
  2 12  1  0
 12 13  1  0
 12 14  1  0
 12 15  1  0
 11  5  1  0
  1 16  1  0
  1 17  1  0
  2 18  1  6
  6 19  1  0
  7 20  1  0
 10 21  1  0
 11 22  1  0
M  END
