
     RDKit          3D

 22 22  0  0  0  0  0  0  0  0999 V2000
   -1.5163    1.1922    2.5851 C   0  0  0  0  0  0  0  0  0  0  0  0
   -0.6764    0.6331    1.4381 C   0  0  2  0  0  0  0  0  0  0  0  0
    0.4065   -0.2104    1.9706 N   0  0  0  0  0  0  0  0  0  0  0  0
   -0.0637    1.7705    0.6054 C   0  0  0  0  0  0  0  0  0  0  0  0
    0.1605    2.8826    1.0861 O   0  0  0  0  0  0  0  0  0  0  0  0
    0.2783    1.5240   -0.8295 C   0  0  0  0  0  0  0  0  0  0  0  0
    0.3971    0.2351   -1.3643 C   0  0  0  0  0  0  0  0  0  0  0  0
    0.7158    0.0598   -2.7153 C   0  0  0  0  0  0  0  0  0  0  0  0
    0.9197    1.1713   -3.5314 C   0  0  0  0  0  0  0  0  0  0  0  0
    1.3502    0.9296   -5.3556 Br  0  0  0  0  0  0  0  0  0  0  0  0
    0.8135    2.4585   -3.0100 C   0  0  0  0  0  0  0  0  0  0  0  0
    0.4962    2.6337   -1.6603 C   0  0  0  0  0  0  0  0  0  0  0  0
   -1.9976    0.3855    3.1487 H   0  0  0  0  0  0  0  0  0  0  0  0
   -2.3031    1.8507    2.2007 H   0  0  0  0  0  0  0  0  0  0  0  0
   -0.9104    1.7791    3.2851 H   0  0  0  0  0  0  0  0  0  0  0  0
   -1.3360    0.0337    0.8017 H   0  0  0  0  0  0  0  0  0  0  0  0
    0.0147   -0.8837    2.6292 H   0  0  0  0  0  0  0  0  0  0  0  0
    1.0265    0.3810    2.5306 H   0  0  0  0  0  0  0  0  0  0  0  0
    0.2691   -0.6493   -0.7456 H   0  0  0  0  0  0  0  0  0  0  0  0
    0.8100   -0.9464   -3.1165 H   0  0  0  0  0  0  0  0  0  0  0  0
    0.9777    3.3297   -3.6390 H   0  0  0  0  0  0  0  0  0  0  0  0
    0.4194    3.6428   -1.2584 H   0  0  0  0  0  0  0  0  0  0  0  0
  1  2  1  0
  2  3  1  0
  2  4  1  0
  4  5  2  0
  4  6  1  0
  6  7  2  0
  7  8  1  0
  8  9  2  0
  9 10  1  0
  9 11  1  0
 11 12  2  0
 12  6  1  0
  1 13  1  0
  1 14  1  0
  1 15  1  0
  2 16  1  6
  3 17  1  0
  3 18  1  0
  7 19  1  0
  8 20  1  0
 11 21  1  0
 12 22  1  0
M  END
