
     RDKit          3D

 30 30  0  0  0  0  0  0  0  0999 V2000
    0.6739   -0.8513    3.3055 C   0  0  0  0  0  0  0  0  0  0  0  0
   -0.5180   -1.7692    3.0046 C   0  0  0  0  0  0  0  0  0  0  0  0
   -1.8211   -1.0543    3.3848 C   0  0  0  0  0  0  0  0  0  0  0  0
   -0.5526   -2.2998    1.5425 C   0  0  2  0  0  0  0  0  0  0  0  0
    0.5788   -3.1982    1.3129 N   0  0  0  0  0  0  0  0  0  0  0  0
   -0.6573   -1.2041    0.5052 C   0  0  0  0  0  0  0  0  0  0  0  0
    0.2331   -0.8763   -0.4481 C   0  0  0  0  0  0  0  0  0  0  0  0
    0.0227    0.2092   -1.4163 C   0  0  0  0  0  0  0  0  0  0  0  0
   -0.5108    1.4489   -1.0398 C   0  0  0  0  0  0  0  0  0  0  0  0
   -0.6682    2.4695   -1.9809 C   0  0  0  0  0  0  0  0  0  0  0  0
   -0.2844    2.2640   -3.3045 C   0  0  0  0  0  0  0  0  0  0  0  0
    0.2617    1.0406   -3.6871 C   0  0  0  0  0  0  0  0  0  0  0  0
    0.4199    0.0201   -2.7460 C   0  0  0  0  0  0  0  0  0  0  0  0
    0.6611   -0.5408    4.3562 H   0  0  0  0  0  0  0  0  0  0  0  0
    1.6274   -1.3585    3.1309 H   0  0  0  0  0  0  0  0  0  0  0  0
    0.6513    0.0562    2.6933 H   0  0  0  0  0  0  0  0  0  0  0  0
   -0.4346   -2.6399    3.6708 H   0  0  0  0  0  0  0  0  0  0  0  0
   -1.8325   -0.8234    4.4557 H   0  0  0  0  0  0  0  0  0  0  0  0
   -1.9430   -0.1107    2.8434 H   0  0  0  0  0  0  0  0  0  0  0  0
   -2.6895   -1.6871    3.1737 H   0  0  0  0  0  0  0  0  0  0  0  0
   -1.4547   -2.9167    1.4372 H   0  0  0  0  0  0  0  0  0  0  0  0
    1.4494   -2.6753    1.3663 H   0  0  0  0  0  0  0  0  0  0  0  0
    0.5155   -3.5756    0.3694 H   0  0  0  0  0  0  0  0  0  0  0  0
   -1.5936   -0.6485    0.5477 H   0  0  0  0  0  0  0  0  0  0  0  0
    1.1677   -1.4177   -0.5591 H   0  0  0  0  0  0  0  0  0  0  0  0
   -0.7988    1.6366   -0.0084 H   0  0  0  0  0  0  0  0  0  0  0  0
   -1.0854    3.4263   -1.6781 H   0  0  0  0  0  0  0  0  0  0  0  0
   -0.4064    3.0583   -4.0362 H   0  0  0  0  0  0  0  0  0  0  0  0
    0.5661    0.8797   -4.7179 H   0  0  0  0  0  0  0  0  0  0  0  0
    0.8480   -0.9279   -3.0634 H   0  0  0  0  0  0  0  0  0  0  0  0
  1  2  1  0
  2  3  1  0
  2  4  1  0
  4  5  1  0
  4  6  1  0
  6  7  2  0
  7  8  1  0
  8  9  2  0
  9 10  1  0
 10 11  2  0
 11 12  1  0
 12 13  2  0
 13  8  1  0
  1 14  1  0
  1 15  1  0
  1 16  1  0
  2 17  1  0
  3 18  1  0
  3 19  1  0
  3 20  1  0
  4 21  1  1
  5 22  1  0
  5 23  1  0
  6 24  1  0
  7 25  1  0
  9 26  1  0
 10 27  1  0
 11 28  1  0
 12 29  1  0
 13 30  1  0
M  END
