
     RDKit          3D

 26 26  0  0  0  0  0  0  0  0999 V2000
    2.5535    2.6745    0.0540 C   0  0  0  0  0  0  0  0  0  0  0  0
    1.0799    2.5485   -0.3077 C   0  0  2  0  0  0  0  0  0  0  0  0
    0.2369    2.4546    0.8982 N   0  0  0  0  0  0  0  0  0  0  0  0
    0.8310    1.3676   -1.2370 C   0  0  0  0  0  0  0  0  0  0  0  0
    0.5305    1.4638   -2.4225 O   0  0  0  0  0  0  0  0  0  0  0  0
    0.9930   -0.0114   -0.6424 C   0  0  0  0  0  0  0  0  0  0  0  0
    2.1089   -0.4938   -0.5069 O   0  0  0  0  0  0  0  0  0  0  0  0
   -0.2124   -0.7547   -0.2359 C   0  0  0  0  0  0  0  0  0  0  0  0
   -1.2729   -0.8969   -1.1394 C   0  0  0  0  0  0  0  0  0  0  0  0
   -2.3790   -1.6759   -0.7947 C   0  0  0  0  0  0  0  0  0  0  0  0
   -2.4290   -2.3159    0.4440 C   0  0  0  0  0  0  0  0  0  0  0  0
   -1.3771   -2.1727    1.3510 C   0  0  0  0  0  0  0  0  0  0  0  0
   -0.2654   -1.3878    1.0133 C   0  0  0  0  0  0  0  0  0  0  0  0
    0.7948   -1.1605    2.0270 C   0  0  0  0  0  0  0  0  0  0  0  0
    1.4683   -2.5389    2.8557 Cl  0  0  0  0  0  0  0  0  0  0  0  0
    1.0963    0.0136    2.2472 O   0  0  0  0  0  0  0  0  0  0  0  0
    3.1727    2.7015   -0.8493 H   0  0  0  0  0  0  0  0  0  0  0  0
    2.9001    1.8325    0.6629 H   0  0  0  0  0  0  0  0  0  0  0  0
    2.7392    3.5943    0.6190 H   0  0  0  0  0  0  0  0  0  0  0  0
    0.7715    3.4465   -0.8561 H   0  0  0  0  0  0  0  0  0  0  0  0
    0.3169    3.3285    1.4214 H   0  0  0  0  0  0  0  0  0  0  0  0
    0.6331    1.7497    1.5397 H   0  0  0  0  0  0  0  0  0  0  0  0
   -1.2408   -0.4290   -2.1222 H   0  0  0  0  0  0  0  0  0  0  0  0
   -3.2013   -1.7903   -1.4987 H   0  0  0  0  0  0  0  0  0  0  0  0
   -3.2952   -2.9206    0.7062 H   0  0  0  0  0  0  0  0  0  0  0  0
   -1.4482   -2.6561    2.3232 H   0  0  0  0  0  0  0  0  0  0  0  0
  1  2  1  0
  2  3  1  0
  2  4  1  0
  4  5  2  0
  4  6  1  0
  6  7  2  0
  6  8  1  0
  8  9  2  0
  9 10  1  0
 10 11  2  0
 11 12  1  0
 12 13  2  0
 13 14  1  0
 14 15  1  0
 14 16  2  0
 13  8  1  0
  1 17  1  0
  1 18  1  0
  1 19  1  0
  2 20  1  6
  3 21  1  0
  3 22  1  0
  9 23  1  0
 10 24  1  0
 11 25  1  0
 12 26  1  0
M  END
