
     RDKit          3D

 27 27  0  0  0  0  0  0  0  0999 V2000
   -1.5197   -2.6149   -0.4937 N   0  0  0  0  0  0  0  0  0  0  0  0
   -1.2151   -2.2746   -1.9119 C   0  0  1  0  0  0  0  0  0  0  0  0
   -1.0272   -0.7496   -2.0838 C   0  0  0  0  0  0  0  0  0  0  0  0
    0.0669   -0.1301   -1.2535 C   0  0  0  0  0  0  0  0  0  0  0  0
   -0.1484    0.8192   -0.3283 C   0  0  0  0  0  0  0  0  0  0  0  0
    0.9162    1.4264    0.4816 C   0  0  0  0  0  0  0  0  0  0  0  0
    1.9690    0.6682    1.0135 C   0  0  0  0  0  0  0  0  0  0  0  0
    2.9513    1.2690    1.8053 C   0  0  0  0  0  0  0  0  0  0  0  0
    2.8846    2.6334    2.0817 C   0  0  0  0  0  0  0  0  0  0  0  0
    1.8321    3.3886    1.5692 C   0  0  0  0  0  0  0  0  0  0  0  0
    1.7427    5.0722    1.9176 Cl  0  0  0  0  0  0  0  0  0  0  0  0
    0.8483    2.7931    0.7786 C   0  0  0  0  0  0  0  0  0  0  0  0
   -0.0498   -3.0676   -2.5589 C   0  0  0  0  0  0  0  0  0  0  0  0
   -0.2877   -4.4005   -2.4728 F   0  0  0  0  0  0  0  0  0  0  0  0
    0.0638   -2.7702   -3.8745 F   0  0  0  0  0  0  0  0  0  0  0  0
    1.1438   -2.8296   -1.9774 F   0  0  0  0  0  0  0  0  0  0  0  0
   -1.6939   -3.6180   -0.4160 H   0  0  0  0  0  0  0  0  0  0  0  0
   -2.3692   -2.1369   -0.1975 H   0  0  0  0  0  0  0  0  0  0  0  0
   -2.1123   -2.5472   -2.4832 H   0  0  0  0  0  0  0  0  0  0  0  0
   -0.8204   -0.5268   -3.1382 H   0  0  0  0  0  0  0  0  0  0  0  0
   -1.9831   -0.2569   -1.8593 H   0  0  0  0  0  0  0  0  0  0  0  0
    1.0803   -0.4752   -1.4492 H   0  0  0  0  0  0  0  0  0  0  0  0
   -1.1533    1.1929   -0.1467 H   0  0  0  0  0  0  0  0  0  0  0  0
    2.0277   -0.4022    0.8252 H   0  0  0  0  0  0  0  0  0  0  0  0
    3.7635    0.6697    2.2090 H   0  0  0  0  0  0  0  0  0  0  0  0
    3.6490    3.0983    2.6982 H   0  0  0  0  0  0  0  0  0  0  0  0
    0.0347    3.3987    0.3875 H   0  0  0  0  0  0  0  0  0  0  0  0
  1  2  1  0
  2  3  1  0
  3  4  1  0
  4  5  2  3
  5  6  1  0
  6  7  2  0
  7  8  1  0
  8  9  2  0
  9 10  1  0
 10 11  1  0
 10 12  2  0
  2 13  1  0
 13 14  1  0
 13 15  1  0
 13 16  1  0
 12  6  1  0
  1 17  1  0
  1 18  1  0
  2 19  1  6
  3 20  1  0
  3 21  1  0
  4 22  1  0
  5 23  1  0
  7 24  1  0
  8 25  1  0
  9 26  1  0
 12 27  1  0
M  END
