
     RDKit          3D

 21 20  0  0  0  0  0  0  0  0999 V2000
    1.2640    1.4778   -0.7305 C   0  0  0  0  0  0  0  0  0  0  0  0
   -0.2243    1.1895   -0.4965 C   0  0  0  0  0  0  0  0  0  0  0  0
   -1.0379    1.7864   -1.6441 C   0  0  0  0  0  0  0  0  0  0  0  0
   -0.4241   -0.3339   -0.3144 C   0  0  0  0  0  0  0  0  0  0  0  0
   -1.8264   -0.8429    0.0707 C   0  0  2  0  0  0  0  0  0  0  0  0
   -2.7920   -0.6983   -1.0114 N   0  0  0  0  0  0  0  0  0  0  0  0
   -2.3416   -0.1915    1.2843 C   0  0  0  0  0  0  0  0  0  0  0  0
   -2.7685    0.3356    2.2760 C   0  0  0  0  0  0  0  0  0  0  0  0
    1.6205    1.0033   -1.6512 H   0  0  0  0  0  0  0  0  0  0  0  0
    1.8695    1.1034    0.1017 H   0  0  0  0  0  0  0  0  0  0  0  0
    1.4446    2.5550   -0.8121 H   0  0  0  0  0  0  0  0  0  0  0  0
   -0.5107    1.7035    0.4289 H   0  0  0  0  0  0  0  0  0  0  0  0
   -2.1067    1.7933   -1.4139 H   0  0  0  0  0  0  0  0  0  0  0  0
   -0.7497    2.8279   -1.8253 H   0  0  0  0  0  0  0  0  0  0  0  0
   -0.8840    1.2293   -2.5743 H   0  0  0  0  0  0  0  0  0  0  0  0
   -0.1009   -0.8488   -1.2300 H   0  0  0  0  0  0  0  0  0  0  0  0
    0.2696   -0.6679    0.4709 H   0  0  0  0  0  0  0  0  0  0  0  0
   -1.7345   -1.9168    0.2780 H   0  0  0  0  0  0  0  0  0  0  0  0
   -2.4806   -1.2366   -1.8164 H   0  0  0  0  0  0  0  0  0  0  0  0
   -3.6802   -1.1004   -0.7168 H   0  0  0  0  0  0  0  0  0  0  0  0
   -3.1497    0.8106    3.1500 H   0  0  0  0  0  0  0  0  0  0  0  0
  1  2  1  0
  2  3  1  0
  2  4  1  0
  4  5  1  0
  5  6  1  0
  5  7  1  0
  7  8  3  0
  1  9  1  0
  1 10  1  0
  1 11  1  0
  2 12  1  0
  3 13  1  0
  3 14  1  0
  3 15  1  0
  4 16  1  0
  4 17  1  0
  5 18  1  1
  6 19  1  0
  6 20  1  0
  8 21  1  0
M  END
