
     RDKit          3D

 27 27  0  0  0  0  0  0  0  0999 V2000
   -1.6864    3.1538   -2.9755 N   0  0  0  0  0  0  0  0  0  0  0  0
   -0.9868    1.8340   -2.9667 C   0  0  1  0  0  0  0  0  0  0  0  0
    0.1297    1.8051   -1.8955 C   0  0  0  0  0  0  0  0  0  0  0  0
   -0.3267    2.0387   -0.4765 C   0  0  0  0  0  0  0  0  0  0  0  0
   -0.2371    1.1835    0.5548 C   0  0  0  0  0  0  0  0  0  0  0  0
    0.3265   -0.1632    0.4771 C   0  0  0  0  0  0  0  0  0  0  0  0
    1.7073   -0.3583    0.6101 C   0  0  0  0  0  0  0  0  0  0  0  0
    2.2428   -1.6447    0.5267 C   0  0  0  0  0  0  0  0  0  0  0  0
    1.3967   -2.7266    0.3101 C   0  0  0  0  0  0  0  0  0  0  0  0
    1.9124   -3.9600    0.2289 F   0  0  0  0  0  0  0  0  0  0  0  0
    0.0246   -2.5477    0.1763 C   0  0  0  0  0  0  0  0  0  0  0  0
   -0.5134   -1.2625    0.2613 C   0  0  0  0  0  0  0  0  0  0  0  0
   -1.9073    0.5894   -2.8492 C   0  0  0  0  0  0  0  0  0  0  0  0
   -2.6217    0.5923   -1.7007 F   0  0  0  0  0  0  0  0  0  0  0  0
   -1.1925   -0.5578   -2.8914 F   0  0  0  0  0  0  0  0  0  0  0  0
   -2.7939    0.5410   -3.8719 F   0  0  0  0  0  0  0  0  0  0  0  0
   -2.3107    3.2038   -2.1682 H   0  0  0  0  0  0  0  0  0  0  0  0
   -1.0073    3.9059   -2.8684 H   0  0  0  0  0  0  0  0  0  0  0  0
   -0.4901    1.7572   -3.9420 H   0  0  0  0  0  0  0  0  0  0  0  0
    0.6805    0.8621   -1.9878 H   0  0  0  0  0  0  0  0  0  0  0  0
    0.8616    2.5897   -2.1313 H   0  0  0  0  0  0  0  0  0  0  0  0
   -0.7575    3.0176   -0.2705 H   0  0  0  0  0  0  0  0  0  0  0  0
   -0.6040    1.4745    1.5370 H   0  0  0  0  0  0  0  0  0  0  0  0
    2.3692    0.4879    0.7778 H   0  0  0  0  0  0  0  0  0  0  0  0
    3.3105   -1.8094    0.6281 H   0  0  0  0  0  0  0  0  0  0  0  0
   -0.6164   -3.4062    0.0039 H   0  0  0  0  0  0  0  0  0  0  0  0
   -1.5868   -1.1235    0.1508 H   0  0  0  0  0  0  0  0  0  0  0  0
  1  2  1  0
  2  3  1  0
  3  4  1  0
  4  5  2  3
  5  6  1  0
  6  7  2  0
  7  8  1  0
  8  9  2  0
  9 10  1  0
  9 11  1  0
 11 12  2  0
  2 13  1  0
 13 14  1  0
 13 15  1  0
 13 16  1  0
 12  6  1  0
  1 17  1  0
  1 18  1  0
  2 19  1  6
  3 20  1  0
  3 21  1  0
  4 22  1  0
  5 23  1  0
  7 24  1  0
  8 25  1  0
 11 26  1  0
 12 27  1  0
M  END
