
     RDKit          3D

 28 27  0  0  0  0  0  0  0  0999 V2000
    2.3373   -1.6145   -3.2197 N   0  0  0  0  0  0  0  0  0  0  0  0
    1.5810   -1.0256   -2.0745 C   0  0  0  0  0  0  0  0  0  0  0  0
    0.8956    0.2769   -2.5032 C   0  0  0  0  0  0  0  0  0  0  0  0
   -0.0524    1.1430   -1.1962 S   0  0  0  0  0  0  0  0  0  0  0  0
    1.3656    1.7195    0.1740 S   0  0  0  0  0  0  0  0  0  0  0  0
    1.4070    0.3836    1.4382 C   0  0  0  0  0  0  0  0  0  0  0  0
    0.1462    0.1405    2.2879 C   0  0  2  0  0  0  0  0  0  0  0  0
   -1.0296   -0.3713    1.5630 N   0  0  0  0  0  0  0  0  0  0  0  0
   -0.2328    1.4047    3.0809 C   0  0  0  0  0  0  0  0  0  0  0  0
    0.3753    1.5376    4.3011 N   0  0  0  0  0  0  0  0  0  0  0  0
   -0.9953    2.2791    2.6794 O   0  0  0  0  0  0  0  0  0  0  0  0
    0.5442   -2.0572   -1.5956 C   0  0  0  0  0  0  0  0  0  0  0  0
   -0.1081   -2.7227   -2.5957 N   0  0  0  0  0  0  0  0  0  0  0  0
    0.2851   -2.2614   -0.4138 O   0  0  0  0  0  0  0  0  0  0  0  0
    3.0487   -0.9445   -3.5171 H   0  0  0  0  0  0  0  0  0  0  0  0
    2.8568   -2.4234   -2.8717 H   0  0  0  0  0  0  0  0  0  0  0  0
    2.3019   -0.8552   -1.2696 H   0  0  0  0  0  0  0  0  0  0  0  0
    1.6312    0.9838   -2.9045 H   0  0  0  0  0  0  0  0  0  0  0  0
    0.1829    0.0765   -3.3120 H   0  0  0  0  0  0  0  0  0  0  0  0
    2.2273    0.6573    2.1127 H   0  0  0  0  0  0  0  0  0  0  0  0
    1.7214   -0.5449    0.9539 H   0  0  0  0  0  0  0  0  0  0  0  0
    0.3990   -0.6370    3.0201 H   0  0  0  0  0  0  0  0  0  0  0  0
   -1.3767    0.3902    0.9704 H   0  0  0  0  0  0  0  0  0  0  0  0
   -0.7248   -1.0986    0.9039 H   0  0  0  0  0  0  0  0  0  0  0  0
    0.0225    2.3120    4.8512 H   0  0  0  0  0  0  0  0  0  0  0  0
    0.6339    0.7089    4.8195 H   0  0  0  0  0  0  0  0  0  0  0  0
    0.3413   -2.7460   -3.5058 H   0  0  0  0  0  0  0  0  0  0  0  0
   -0.7094   -3.4913   -2.3319 H   0  0  0  0  0  0  0  0  0  0  0  0
  1  2  1  0
  2  3  1  0
  3  4  1  0
  4  5  1  0
  5  6  1  0
  6  7  1  0
  7  8  1  0
  7  9  1  0
  9 10  1  0
  9 11  2  0
  2 12  1  0
 12 13  1  0
 12 14  2  0
  1 15  1  0
  1 16  1  0
  2 17  1  0
  3 18  1  0
  3 19  1  0
  6 20  1  0
  6 21  1  0
  7 22  1  1
  8 23  1  0
  8 24  1  0
 10 25  1  0
 10 26  1  0
 13 27  1  0
 13 28  1  0
M  END
