
     RDKit          3D

 15 14  0  0  0  0  0  0  0  0999 V2000
    0.3726    0.3210   -1.3317 N   0  0  0  0  0  0  0  0  0  0  0  0
    1.4938    0.1194   -0.3816 C   0  0  1  0  0  0  0  0  0  0  0  0
    1.6299    1.2735    0.6365 C   0  0  0  0  0  0  0  0  0  0  0  0
    0.0742    1.7774    1.4598 S   0  0  0  0  0  0  0  0  0  0  0  0
    1.4499   -1.5522    0.4639 S   0  0  0  0  0  4  0  0  0  0  0  0
   -0.1912   -1.5577    0.7396 N   0  0  0  0  0  0  0  0  0  0  0  0
    2.2450   -1.4705    1.7286 O   0  0  0  0  0  0  0  0  0  0  0  0
    0.3789   -0.4536   -1.9976 H   0  0  0  0  0  0  0  0  0  0  0  0
    0.5583    1.1610   -1.8797 H   0  0  0  0  0  0  0  0  0  0  0  0
    2.4231    0.0790   -0.9623 H   0  0  0  0  0  0  0  0  0  0  0  0
    2.3738    1.0522    1.4079 H   0  0  0  0  0  0  0  0  0  0  0  0
    1.9836    2.1632    0.1025 H   0  0  0  0  0  0  0  0  0  0  0  0
   -0.6662    1.7951    0.3399 H   0  0  0  0  0  0  0  0  0  0  0  0
   -0.7128   -0.8375    0.2346 H   0  0  0  0  0  0  0  0  0  0  0  0
   -0.4457   -1.4401    1.7191 H   0  0  0  0  0  0  0  0  0  0  0  0
  1  2  1  0
  2  3  1  0
  3  4  1  0
  2  5  1  0
  5  6  1  0
  5  7  2  0
  1  8  1  0
  1  9  1  0
  2 10  1  6
  3 11  1  0
  3 12  1  0
  4 13  1  0
  6 14  1  0
  6 15  1  0
M  END
