
     RDKit          3D

 22 21  0  0  0  0  0  0  0  0999 V2000
   -1.0573    3.3440    1.4725 C   0  0  0  0  0  0  0  0  0  0  0  0
   -1.0192    1.8908    1.8753 C   0  0  0  0  0  0  0  0  0  0  0  0
   -0.9247    1.5712    3.0639 O   0  0  0  0  0  0  0  0  0  0  0  0
   -1.0263    0.8224    0.7726 C   0  0  1  0  0  0  0  0  0  0  0  0
   -1.9900    1.1679   -0.2856 N   0  0  0  0  0  0  0  0  0  0  0  0
    0.3932    0.6261    0.2313 C   0  0  0  0  0  0  0  0  0  0  0  0
    0.5330   -0.6295   -0.6297 C   0  0  0  0  0  0  0  0  0  0  0  0
    1.9444   -0.7968   -1.1483 C   0  0  0  0  0  0  0  0  0  0  0  0
    2.1688   -1.9779   -1.7931 N   0  0  0  0  0  0  0  0  0  0  0  0
    2.8272    0.0453   -1.0487 O   0  0  0  0  0  0  0  0  0  0  0  0
   -0.2705    3.5515    0.7435 H   0  0  0  0  0  0  0  0  0  0  0  0
   -0.8841    3.9698    2.3529 H   0  0  0  0  0  0  0  0  0  0  0  0
   -2.0369    3.5922    1.0576 H   0  0  0  0  0  0  0  0  0  0  0  0
   -1.3756   -0.1033    1.2466 H   0  0  0  0  0  0  0  0  0  0  0  0
   -1.5989    1.8847   -0.8975 H   0  0  0  0  0  0  0  0  0  0  0  0
   -2.1544    0.3558   -0.8789 H   0  0  0  0  0  0  0  0  0  0  0  0
    0.7033    1.5089   -0.3440 H   0  0  0  0  0  0  0  0  0  0  0  0
    1.0981    0.5620    1.0715 H   0  0  0  0  0  0  0  0  0  0  0  0
    0.2692   -1.5156   -0.0407 H   0  0  0  0  0  0  0  0  0  0  0  0
   -0.1341   -0.5804   -1.4973 H   0  0  0  0  0  0  0  0  0  0  0  0
    1.5469   -2.7689   -1.6998 H   0  0  0  0  0  0  0  0  0  0  0  0
    3.1205   -2.1581   -2.0882 H   0  0  0  0  0  0  0  0  0  0  0  0
  1  2  1  0
  2  3  2  0
  2  4  1  0
  4  5  1  0
  4  6  1  0
  6  7  1  0
  7  8  1  0
  8  9  1  0
  8 10  2  0
  1 11  1  0
  1 12  1  0
  1 13  1  0
  4 14  1  1
  5 15  1  0
  5 16  1  0
  6 17  1  0
  6 18  1  0
  7 19  1  0
  7 20  1  0
  9 21  1  0
  9 22  1  0
M  END
