
     RDKit          3D

 15 14  0  0  0  0  0  0  0  0999 V2000
    0.5928   -0.3512    1.9689 C   0  0  0  0  0  0  0  0  0  0  0  0
    0.8006   -0.0510    0.4848 C   0  0  1  0  0  0  0  0  0  0  0  0
    0.3656   -1.1954   -0.3202 N   0  0  0  0  0  0  0  0  0  0  0  0
    0.0953    1.2333    0.0437 C   0  0  0  0  0  0  0  0  0  0  0  0
   -1.3912    1.1922    0.2869 C   0  0  0  0  0  0  0  0  0  0  0  0
   -1.9971    2.0876    0.8703 O   0  0  0  0  0  0  0  0  0  0  0  0
   -0.4553   -0.5694    2.2016 H   0  0  0  0  0  0  0  0  0  0  0  0
    0.9056    0.5004    2.5826 H   0  0  0  0  0  0  0  0  0  0  0  0
    1.1884   -1.2177    2.2777 H   0  0  0  0  0  0  0  0  0  0  0  0
    1.8766    0.0823    0.3182 H   0  0  0  0  0  0  0  0  0  0  0  0
    0.8228   -2.0445    0.0169 H   0  0  0  0  0  0  0  0  0  0  0  0
    0.6815   -1.0795   -1.2843 H   0  0  0  0  0  0  0  0  0  0  0  0
    0.2518    1.4109   -1.0265 H   0  0  0  0  0  0  0  0  0  0  0  0
    0.5098    2.0919    0.5847 H   0  0  0  0  0  0  0  0  0  0  0  0
   -1.9317    0.3300   -0.1396 H   0  0  0  0  0  0  0  0  0  0  0  0
  1  2  1  0
  2  3  1  0
  2  4  1  0
  4  5  1  0
  5  6  2  0
  1  7  1  0
  1  8  1  0
  1  9  1  0
  2 10  1  1
  3 11  1  0
  3 12  1  0
  4 13  1  0
  4 14  1  0
  5 15  1  0
M  END
