
     RDKit          3D

 41 42  0  0  0  0  0  0  0  0999 V2000
   -6.5985    1.4863    0.4046 C   0  0  0  0  0  0  0  0  0  0  0  0
   -5.9183    1.0656   -1.1734 S   0  0  0  0  0  6  0  0  0  0  0  0
   -6.0908    2.2208   -2.0307 O   0  0  0  0  0  0  0  0  0  0  0  0
   -6.4381   -0.2401   -1.5263 O   0  0  0  0  0  0  0  0  0  0  0  0
   -4.1651    0.8570   -0.9784 C   0  0  0  0  0  0  0  0  0  0  0  0
   -3.5548    1.0097    0.2705 C   0  0  0  0  0  0  0  0  0  0  0  0
   -2.1718    0.8375    0.3945 C   0  0  0  0  0  0  0  0  0  0  0  0
   -1.3742    0.5120   -0.7133 C   0  0  0  0  0  0  0  0  0  0  0  0
   -2.0079    0.3646   -1.9587 C   0  0  0  0  0  0  0  0  0  0  0  0
   -3.3957    0.5329   -2.1040 C   0  0  0  0  0  0  0  0  0  0  0  0
   -3.9582    0.3596   -3.4149 C   0  0  0  0  0  0  0  0  0  0  0  0
   -4.3573    0.2036   -4.4930 N   0  0  0  0  0  0  0  0  0  0  0  0
    0.0810    0.3312   -0.5760 C   0  0  0  0  0  0  0  0  0  0  0  0
    0.8775    1.3085    0.0414 C   0  0  0  0  0  0  0  0  0  0  0  0
    2.2605    1.1418    0.1670 C   0  0  0  0  0  0  0  0  0  0  0  0
    2.8853   -0.0099   -0.3225 C   0  0  0  0  0  0  0  0  0  0  0  0
    4.3817   -0.1961   -0.1816 C   0  0  0  0  0  0  0  0  0  0  0  0
    4.8330   -0.8891    1.1185 C   0  0  2  0  0  0  0  0  0  0  0  0
    4.2753   -2.2554    1.2663 N   0  0  0  0  0  0  0  0  0  0  0  0
    4.5504   -0.0014    2.3492 C   0  0  0  0  0  0  0  0  0  0  0  0
    4.0011   -0.6182    3.4405 N   0  0  0  0  0  0  0  0  0  0  0  0
    4.8351    1.1919    2.4047 O   0  0  0  0  0  0  0  0  0  0  0  0
    2.1009   -0.9897   -0.9407 C   0  0  0  0  0  0  0  0  0  0  0  0
    0.7181   -0.8210   -1.0637 C   0  0  0  0  0  0  0  0  0  0  0  0
   -6.4157    0.6729    1.1090 H   0  0  0  0  0  0  0  0  0  0  0  0
   -7.6761    1.6184    0.2789 H   0  0  0  0  0  0  0  0  0  0  0  0
   -6.1593    2.4229    0.7526 H   0  0  0  0  0  0  0  0  0  0  0  0
   -4.1149    1.2574    1.1662 H   0  0  0  0  0  0  0  0  0  0  0  0
   -1.7143    0.9497    1.3774 H   0  0  0  0  0  0  0  0  0  0  0  0
   -1.4068    0.1255   -2.8377 H   0  0  0  0  0  0  0  0  0  0  0  0
    0.4298    2.2265    0.4173 H   0  0  0  0  0  0  0  0  0  0  0  0
    2.8472    1.9267    0.6431 H   0  0  0  0  0  0  0  0  0  0  0  0
    4.7465   -0.7715   -1.0434 H   0  0  0  0  0  0  0  0  0  0  0  0
    4.8658    0.7860   -0.2670 H   0  0  0  0  0  0  0  0  0  0  0  0
    5.9241   -0.9990    1.0807 H   0  0  0  0  0  0  0  0  0  0  0  0
    4.6237   -2.6634    2.1319 H   0  0  0  0  0  0  0  0  0  0  0  0
    3.2594   -2.2022    1.3131 H   0  0  0  0  0  0  0  0  0  0  0  0
    3.4322   -1.4418    3.3120 H   0  0  0  0  0  0  0  0  0  0  0  0
    3.7380    0.0028    4.1956 H   0  0  0  0  0  0  0  0  0  0  0  0
    2.5632   -1.8942   -1.3327 H   0  0  0  0  0  0  0  0  0  0  0  0
    0.1396   -1.6080   -1.5440 H   0  0  0  0  0  0  0  0  0  0  0  0
  1  2  1  0
  2  3  2  0
  2  4  2  0
  2  5  1  0
  5  6  2  0
  6  7  1  0
  7  8  2  0
  8  9  1  0
  9 10  2  0
 10 11  1  0
 11 12  3  0
  8 13  1  0
 13 14  2  0
 14 15  1  0
 15 16  2  0
 16 17  1  0
 17 18  1  0
 18 19  1  0
 18 20  1  0
 20 21  1  0
 20 22  2  0
 16 23  1  0
 23 24  2  0
 10  5  1  0
 24 13  1  0
  1 25  1  0
  1 26  1  0
  1 27  1  0
  6 28  1  0
  7 29  1  0
  9 30  1  0
 14 31  1  0
 15 32  1  0
 17 33  1  0
 17 34  1  0
 18 35  1  6
 19 36  1  0
 19 37  1  0
 21 38  1  0
 21 39  1  0
 23 40  1  0
 24 41  1  0
M  END
