
     RDKit          3D

 24 23  0  0  0  0  0  0  0  0999 V2000
    2.3508   -1.3698   -1.0859 C   0  0  0  0  0  0  0  0  0  0  0  0
    0.9145   -1.5772   -0.6003 C   0  0  0  0  0  0  0  0  0  0  0  0
    0.8906   -1.7806    0.9117 C   0  0  0  0  0  0  0  0  0  0  0  0
   -0.0393   -0.4664   -1.0956 C   0  0  0  0  0  0  0  0  0  0  0  0
    0.2160    0.9572   -0.5714 C   0  0  1  0  0  0  0  0  0  0  0  0
   -0.3153    2.0625   -1.4803 C   0  0  0  0  0  0  0  0  0  0  0  0
   -2.0375    1.9225   -1.8832 S   0  0  0  0  0  6  0  0  0  0  0  0
   -2.3727    3.2452   -2.7057 F   0  0  0  0  0  0  0  0  0  0  0  0
   -2.2068    0.8428   -2.8337 O   0  0  0  0  0  0  0  0  0  0  0  0
   -2.8345    2.0176   -0.6814 O   0  0  0  0  0  0  0  0  0  0  0  0
   -0.3010    1.1315    0.7591 N   0  0  0  0  0  4  0  0  0  0  0  0
   -0.6806    1.3111    1.8532 C   0  0  0  0  0  3  0  0  0  0  0  0
    2.3798   -1.2162   -2.1696 H   0  0  0  0  0  0  0  0  0  0  0  0
    2.8252   -0.5090   -0.6047 H   0  0  0  0  0  0  0  0  0  0  0  0
    2.9611   -2.2510   -0.8590 H   0  0  0  0  0  0  0  0  0  0  0  0
    0.5579   -2.5118   -1.0545 H   0  0  0  0  0  0  0  0  0  0  0  0
    1.3558   -0.9442    1.4419 H   0  0  0  0  0  0  0  0  0  0  0  0
    1.4459   -2.6853    1.1830 H   0  0  0  0  0  0  0  0  0  0  0  0
   -0.1346   -1.9011    1.2757 H   0  0  0  0  0  0  0  0  0  0  0  0
   -1.0664   -0.7662   -0.8498 H   0  0  0  0  0  0  0  0  0  0  0  0
    0.0326   -0.4576   -2.1910 H   0  0  0  0  0  0  0  0  0  0  0  0
    1.2977    1.1211   -0.4999 H   0  0  0  0  0  0  0  0  0  0  0  0
   -0.1879    3.0425   -1.0082 H   0  0  0  0  0  0  0  0  0  0  0  0
    0.2252    2.0663   -2.4327 H   0  0  0  0  0  0  0  0  0  0  0  0
  1  2  1  0
  2  3  1  0
  2  4  1  0
  4  5  1  0
  5  6  1  0
  6  7  1  0
  7  8  1  0
  7  9  2  0
  7 10  2  0
  5 11  1  0
 11 12  3  0
  1 13  1  0
  1 14  1  0
  1 15  1  0
  2 16  1  0
  3 17  1  0
  3 18  1  0
  3 19  1  0
  4 20  1  0
  4 21  1  0
  5 22  1  1
  6 23  1  0
  6 24  1  0
M  CHG  2  11   1  12  -1
M  END
