
     RDKit          3D

 19 18  0  0  0  0  0  0  0  0999 V2000
   -1.2039   -0.1304    2.8152 C   0  0  0  0  0  0  0  0  0  0  0  0
    0.2246    0.9034    2.4022 S   0  0  0  0  0  0  0  0  0  0  0  0
   -0.3218    1.5523    0.7905 C   0  0  0  0  0  0  0  0  0  0  0  0
   -0.4642    0.5330   -0.3470 C   0  0  0  0  0  0  0  0  0  0  0  0
    0.8057   -0.2096   -0.7970 C   0  0  2  0  0  0  0  0  0  0  0  0
    1.2049   -1.2390    0.1876 N   0  0  0  0  0  0  0  0  0  0  0  0
    1.9767    0.7353   -1.0960 C   0  0  0  0  0  0  0  0  0  0  0  0
    1.8749    2.0005   -2.7787 I   0  0  0  0  0  0  0  0  0  0  0  0
    3.0185    0.7916   -0.4548 O   0  0  0  0  0  0  0  0  0  0  0  0
   -1.2752   -0.9839    2.1373 H   0  0  0  0  0  0  0  0  0  0  0  0
   -1.0835   -0.5121    3.8327 H   0  0  0  0  0  0  0  0  0  0  0  0
   -2.1256    0.4555    2.7730 H   0  0  0  0  0  0  0  0  0  0  0  0
    0.3890    2.3332    0.5014 H   0  0  0  0  0  0  0  0  0  0  0  0
   -1.2819    2.0582    0.9426 H   0  0  0  0  0  0  0  0  0  0  0  0
   -1.2430   -0.1980   -0.0948 H   0  0  0  0  0  0  0  0  0  0  0  0
   -0.8637    1.0776   -1.2128 H   0  0  0  0  0  0  0  0  0  0  0  0
    0.5845   -0.7493   -1.7256 H   0  0  0  0  0  0  0  0  0  0  0  0
    2.1339   -1.5890   -0.0616 H   0  0  0  0  0  0  0  0  0  0  0  0
    1.3588   -0.7707    1.0897 H   0  0  0  0  0  0  0  0  0  0  0  0
  1  2  1  0
  2  3  1  0
  3  4  1  0
  4  5  1  0
  5  6  1  0
  5  7  1  0
  7  8  1  0
  7  9  2  0
  1 10  1  0
  1 11  1  0
  1 12  1  0
  3 13  1  0
  3 14  1  0
  4 15  1  0
  4 16  1  0
  5 17  1  6
  6 18  1  0
  6 19  1  0
M  END
