
     RDKit          3D

 30 30  0  0  0  0  0  0  0  0999 V2000
   -0.0029    2.3332   -2.8118 C   0  0  0  0  0  0  0  0  0  0  0  0
   -0.3177    1.1722   -1.8611 C   0  0  2  0  0  0  0  0  0  0  0  0
   -1.7776    0.9493   -1.9252 N   0  0  0  0  0  0  0  0  0  0  0  0
    0.1640    1.4411   -0.3963 C   0  0  0  0  0  0  0  0  0  0  0  0
    1.9770    1.7476   -0.2874 S   0  0  0  0  0  0  0  0  0  0  0  0
   -0.2135    0.3241    0.5755 C   0  0  0  0  0  0  0  0  0  0  0  0
    0.2367   -0.9954    0.3961 C   0  0  0  0  0  0  0  0  0  0  0  0
   -0.1184   -2.0158    1.2932 C   0  0  0  0  0  0  0  0  0  0  0  0
   -0.9511   -1.7050    2.3795 C   0  0  0  0  0  0  0  0  0  0  0  0
   -1.4078   -0.3941    2.5886 C   0  0  0  0  0  0  0  0  0  0  0  0
   -1.0375    0.6081    1.6772 C   0  0  0  0  0  0  0  0  0  0  0  0
   -2.3183   -0.0736    3.7517 C   0  0  0  0  0  0  0  0  0  0  0  0
   -2.0948   -0.8674    4.8356 F   0  0  0  0  0  0  0  0  0  0  0  0
   -3.6323   -0.2308    3.4355 F   0  0  0  0  0  0  0  0  0  0  0  0
   -2.1874    1.2073    4.1953 F   0  0  0  0  0  0  0  0  0  0  0  0
    0.3581   -3.4317    1.0646 C   0  0  0  0  0  0  0  0  0  0  0  0
    0.4009   -4.1733    2.2058 F   0  0  0  0  0  0  0  0  0  0  0  0
    1.6095   -3.4931    0.5320 F   0  0  0  0  0  0  0  0  0  0  0  0
   -0.4497   -4.1110    0.2050 F   0  0  0  0  0  0  0  0  0  0  0  0
   -0.4317    3.2742   -2.4491 H   0  0  0  0  0  0  0  0  0  0  0  0
   -0.4083    2.1434   -3.8127 H   0  0  0  0  0  0  0  0  0  0  0  0
    1.0751    2.4744   -2.9344 H   0  0  0  0  0  0  0  0  0  0  0  0
    0.1678    0.2689   -2.2513 H   0  0  0  0  0  0  0  0  0  0  0  0
   -2.0484    0.7398   -2.8864 H   0  0  0  0  0  0  0  0  0  0  0  0
   -2.0215    0.1214   -1.3800 H   0  0  0  0  0  0  0  0  0  0  0  0
   -0.3050    2.3735   -0.0563 H   0  0  0  0  0  0  0  0  0  0  0  0
    1.9981    2.0201    1.0255 H   0  0  0  0  0  0  0  0  0  0  0  0
    0.8824   -1.2367   -0.4497 H   0  0  0  0  0  0  0  0  0  0  0  0
   -1.2445   -2.4933    3.0754 H   0  0  0  0  0  0  0  0  0  0  0  0
   -1.4055    1.6241    1.8282 H   0  0  0  0  0  0  0  0  0  0  0  0
  1  2  1  0
  2  3  1  0
  2  4  1  0
  4  5  1  0
  4  6  1  0
  6  7  2  0
  7  8  1  0
  8  9  2  0
  9 10  1  0
 10 11  2  0
 10 12  1  0
 12 13  1  0
 12 14  1  0
 12 15  1  0
  8 16  1  0
 16 17  1  0
 16 18  1  0
 16 19  1  0
 11  6  1  0
  1 20  1  0
  1 21  1  0
  1 22  1  0
  2 23  1  6
  3 24  1  0
  3 25  1  0
  4 26  1  0
  5 27  1  0
  7 28  1  0
  9 29  1  0
 11 30  1  0
M  END
