
     RDKit          3D

 21 20  0  0  0  0  0  0  0  0999 V2000
    1.3978    1.0595   -1.8763 C   0  0  0  0  0  0  0  0  0  0  0  0
    1.3445    0.8316   -0.3711 C   0  0  0  0  0  0  0  0  0  0  0  0
    0.7549   -0.5315    0.0095 C   0  0  1  0  0  0  0  0  0  0  0  0
    0.8581   -0.7419    1.4654 N   0  0  0  0  0  0  0  0  0  0  0  0
   -0.6978   -0.7093   -0.4654 C   0  0  0  0  0  0  0  0  0  0  0  0
   -0.9284   -1.1807   -1.5852 O   0  0  0  0  0  0  0  0  0  0  0  0
   -1.8529   -0.2926    0.4297 C   0  0  0  0  0  0  0  0  0  0  0  0
   -1.9372    1.2040    0.6434 C   0  0  0  0  0  0  0  0  0  0  0  0
    1.9422    0.2530   -2.3775 H   0  0  0  0  0  0  0  0  0  0  0  0
    0.3943    1.1226   -2.3074 H   0  0  0  0  0  0  0  0  0  0  0  0
    1.9116    2.0012   -2.0950 H   0  0  0  0  0  0  0  0  0  0  0  0
    2.3690    0.9037    0.0166 H   0  0  0  0  0  0  0  0  0  0  0  0
    0.7810    1.6505    0.0872 H   0  0  0  0  0  0  0  0  0  0  0  0
    1.3443   -1.3227   -0.4710 H   0  0  0  0  0  0  0  0  0  0  0  0
    0.6394   -1.7173    1.6753 H   0  0  0  0  0  0  0  0  0  0  0  0
    1.8289   -0.6134    1.7528 H   0  0  0  0  0  0  0  0  0  0  0  0
   -1.7940   -0.8272    1.3827 H   0  0  0  0  0  0  0  0  0  0  0  0
   -2.7769   -0.6323   -0.0543 H   0  0  0  0  0  0  0  0  0  0  0  0
   -1.1399    1.5551    1.3047 H   0  0  0  0  0  0  0  0  0  0  0  0
   -1.8584    1.7464   -0.3043 H   0  0  0  0  0  0  0  0  0  0  0  0
   -2.8911    1.4666    1.1117 H   0  0  0  0  0  0  0  0  0  0  0  0
  1  2  1  0
  2  3  1  0
  3  4  1  0
  3  5  1  0
  5  6  2  0
  5  7  1  0
  7  8  1  0
  1  9  1  0
  1 10  1  0
  1 11  1  0
  2 12  1  0
  2 13  1  0
  3 14  1  6
  4 15  1  0
  4 16  1  0
  7 17  1  0
  7 18  1  0
  8 19  1  0
  8 20  1  0
  8 21  1  0
M  END
