
     RDKit          3D

 18 17  0  0  0  0  0  0  0  0999 V2000
    1.0468    0.8569   -0.3902 N   0  0  0  0  0  0  0  0  0  0  0  0
   -0.3609    0.5132   -0.3850 C   0  0  2  0  0  0  0  0  0  0  0  0
   -1.0950    1.6776    0.2844 C   0  0  0  0  0  0  0  0  0  0  0  0
   -0.8252    3.3344   -0.6785 Se  0  0  0  0  0  2  0  0  0  0  0  0
   -0.6473   -0.7017    0.4298 C   0  0  0  0  0  0  0  0  0  0  0  0
    0.0711   -1.9344   -0.0520 C   0  0  0  0  0  0  0  0  0  0  0  0
    2.0039   -1.6332    0.0108 Se  0  0  0  0  0  2  0  0  0  0  0  0
    1.1950    1.4860   -1.2180 H   0  0  0  0  0  0  0  0  0  0  0  0
    1.2442    1.4541    0.4669 H   0  0  0  0  0  0  0  0  0  0  0  0
   -0.6921    0.4339   -1.4365 H   0  0  0  0  0  0  0  0  0  0  0  0
   -2.1652    1.3731    0.3252 H   0  0  0  0  0  0  0  0  0  0  0  0
   -0.6464    1.7412    1.3162 H   0  0  0  0  0  0  0  0  0  0  0  0
   -0.1327    4.3921    0.2199 H   0  0  0  0  0  0  0  0  0  0  0  0
   -0.3331   -0.4969    1.4729 H   0  0  0  0  0  0  0  0  0  0  0  0
   -1.7387   -0.8983    0.3811 H   0  0  0  0  0  0  0  0  0  0  0  0
   -0.1275   -2.7708    0.6488 H   0  0  0  0  0  0  0  0  0  0  0  0
   -0.1899   -2.2337   -1.0633 H   0  0  0  0  0  0  0  0  0  0  0  0
    2.6059   -2.2117    1.3016 H   0  0  0  0  0  0  0  0  0  0  0  0
  1  2  1  0
  2  3  1  0
  3  4  1  0
  2  5  1  0
  5  6  1  0
  6  7  1  0
  1  8  1  0
  1  9  1  0
  2 10  1  6
  3 11  1  0
  3 12  1  0
  4 13  1  0
  5 14  1  0
  5 15  1  0
  6 16  1  0
  6 17  1  0
  7 18  1  0
M  END
