
     RDKit          3D

 13 12  0  0  0  0  0  0  0  0999 V2000
    0.3391    1.3650    0.9445 N   0  0  0  0  0  0  0  0  0  0  0  0
    1.2347    0.2196    0.5495 C   0  0  1  0  0  0  0  0  0  0  0  0
    2.5512    0.2148    1.3267 C   0  0  0  0  0  0  0  0  0  0  0  0
    2.3096    0.1576    2.6609 F   0  0  0  0  0  0  0  0  0  0  0  0
    3.1931    1.3972    1.1137 F   0  0  0  0  0  0  0  0  0  0  0  0
    0.6361   -1.1815    0.7166 C   0  0  0  0  0  0  0  0  0  0  0  0
    0.3095   -1.4455    1.9997 F   0  0  0  0  0  0  0  0  0  0  0  0
   -0.4802   -1.3358   -0.0306 F   0  0  0  0  0  0  0  0  0  0  0  0
    1.5157   -2.1292    0.3138 F   0  0  0  0  0  0  0  0  0  0  0  0
    0.0725    1.2341    1.9257 H   0  0  0  0  0  0  0  0  0  0  0  0
    0.9024    2.2202    0.9426 H   0  0  0  0  0  0  0  0  0  0  0  0
    1.4650    0.3727   -0.5109 H   0  0  0  0  0  0  0  0  0  0  0  0
    3.2274   -0.5978    1.0471 H   0  0  0  0  0  0  0  0  0  0  0  0
  1  2  1  0
  2  3  1  0
  3  4  1  0
  3  5  1  0
  2  6  1  0
  6  7  1  0
  6  8  1  0
  6  9  1  0
  1 10  1  0
  1 11  1  0
  2 12  1  6
  3 13  1  0
M  END
