
     RDKit          3D

 27 27  0  0  0  0  0  0  0  0999 V2000
    0.3178   -0.1334    2.0431 C   0  0  0  0  0  0  0  0  0  0  0  0
    1.7164    0.3625    1.6956 C   0  0  0  0  0  0  0  0  0  0  0  0
    1.9067    0.6260    0.1918 C   0  0  2  0  0  0  0  0  0  0  0  0
    3.3029    0.9954   -0.0531 N   0  0  0  0  0  0  0  0  0  0  0  0
    1.0476    1.7585   -0.2982 C   0  0  0  0  0  0  0  0  0  0  0  0
    0.0803    1.7061   -1.2289 C   0  0  0  0  0  0  0  0  0  0  0  0
   -0.3102    0.4969   -1.9517 C   0  0  0  0  0  0  0  0  0  0  0  0
    0.3793    0.1113   -3.1059 C   0  0  0  0  0  0  0  0  0  0  0  0
    0.0116   -1.0503   -3.7875 C   0  0  0  0  0  0  0  0  0  0  0  0
   -1.0449   -1.8300   -3.3178 C   0  0  0  0  0  0  0  0  0  0  0  0
   -1.7351   -1.4497   -2.1673 C   0  0  0  0  0  0  0  0  0  0  0  0
   -1.3690   -0.2881   -1.4849 C   0  0  0  0  0  0  0  0  0  0  0  0
   -0.4428    0.6228    1.8271 H   0  0  0  0  0  0  0  0  0  0  0  0
    0.0739   -1.0415    1.4828 H   0  0  0  0  0  0  0  0  0  0  0  0
    0.2582   -0.3691    3.1105 H   0  0  0  0  0  0  0  0  0  0  0  0
    2.4372   -0.3962    2.0276 H   0  0  0  0  0  0  0  0  0  0  0  0
    1.9261    1.2699    2.2771 H   0  0  0  0  0  0  0  0  0  0  0  0
    1.7031   -0.3019   -0.3535 H   0  0  0  0  0  0  0  0  0  0  0  0
    3.9053    0.2340    0.2547 H   0  0  0  0  0  0  0  0  0  0  0  0
    3.4403    1.0678   -1.0606 H   0  0  0  0  0  0  0  0  0  0  0  0
    1.2428    2.7238    0.1680 H   0  0  0  0  0  0  0  0  0  0  0  0
   -0.4735    2.6049   -1.4884 H   0  0  0  0  0  0  0  0  0  0  0  0
    1.2045    0.7132   -3.4786 H   0  0  0  0  0  0  0  0  0  0  0  0
    0.5488   -1.3460   -4.6848 H   0  0  0  0  0  0  0  0  0  0  0  0
   -1.3311   -2.7341   -3.8491 H   0  0  0  0  0  0  0  0  0  0  0  0
   -2.5585   -2.0572   -1.8011 H   0  0  0  0  0  0  0  0  0  0  0  0
   -1.9115   -0.0009   -0.5874 H   0  0  0  0  0  0  0  0  0  0  0  0
  1  2  1  0
  2  3  1  0
  3  4  1  0
  3  5  1  0
  5  6  2  3
  6  7  1  0
  7  8  2  0
  8  9  1  0
  9 10  2  0
 10 11  1  0
 11 12  2  0
 12  7  1  0
  1 13  1  0
  1 14  1  0
  1 15  1  0
  2 16  1  0
  2 17  1  0
  3 18  1  6
  4 19  1  0
  4 20  1  0
  5 21  1  0
  6 22  1  0
  8 23  1  0
  9 24  1  0
 10 25  1  0
 11 26  1  0
 12 27  1  0
M  END
