
     RDKit          3D

 15 14  0  0  0  0  0  0  0  0999 V2000
    1.0149   -1.2515    2.0292 N   0  0  0  0  0  0  0  0  0  0  0  0
    0.3376   -0.2720    1.1470 C   0  0  2  0  0  0  0  0  0  0  0  0
    0.6253   -0.6372   -0.3078 C   0  0  0  0  0  0  0  0  0  0  0  0
   -0.2977    0.1137   -1.2334 C   0  0  0  0  0  0  0  0  0  0  0  0
   -1.5665   -0.3776   -1.3270 N   0  0  0  0  0  0  0  0  0  0  0  0
    0.0365    1.1192   -1.8458 O   0  0  0  0  0  0  0  0  0  0  0  0
    0.7648    1.1164    1.4503 C   0  0  0  0  0  0  0  0  0  0  0  0
    1.1206    2.1813    1.7452 N   0  0  0  0  0  0  0  0  0  0  0  0
    0.8300   -0.9976    3.0020 H   0  0  0  0  0  0  0  0  0  0  0  0
    2.0266   -1.1572    1.9167 H   0  0  0  0  0  0  0  0  0  0  0  0
   -0.7379   -0.3528    1.3451 H   0  0  0  0  0  0  0  0  0  0  0  0
    1.6616   -0.4142   -0.5911 H   0  0  0  0  0  0  0  0  0  0  0  0
    0.4732   -1.7107   -0.4806 H   0  0  0  0  0  0  0  0  0  0  0  0
   -2.1575    0.0704   -2.0188 H   0  0  0  0  0  0  0  0  0  0  0  0
   -1.7761   -1.3437   -1.1108 H   0  0  0  0  0  0  0  0  0  0  0  0
  1  2  1  0
  2  3  1  0
  3  4  1  0
  4  5  1  0
  4  6  2  0
  2  7  1  0
  7  8  3  0
  1  9  1  0
  1 10  1  0
  2 11  1  6
  3 12  1  0
  3 13  1  0
  5 14  1  0
  5 15  1  0
M  END
