
     RDKit          3D

 22 22  0  0  0  0  0  0  0  0999 V2000
    0.6692   -0.2398   -3.6339 C   0  0  0  0  0  0  0  0  0  0  0  0
   -0.0956   -0.6196   -2.3706 C   0  0  1  0  0  0  0  0  0  0  0  0
   -0.0638   -2.0685   -2.1955 N   0  0  0  0  0  0  0  0  0  0  0  0
    0.4874    0.0314   -1.1897 C   0  0  0  0  0  0  0  0  0  0  0  0
    0.9632    0.5645   -0.2236 C   0  0  0  0  0  0  0  0  0  0  0  0
    1.5313    1.1986    0.9255 C   0  0  0  0  0  0  0  0  0  0  0  0
    0.7267    1.4923    2.0314 C   0  0  0  0  0  0  0  0  0  0  0  0
    1.2826    2.1111    3.1529 C   0  0  0  0  0  0  0  0  0  0  0  0
    2.6362    2.4305    3.1590 C   0  0  0  0  0  0  0  0  0  0  0  0
    3.1685    3.0240    4.2352 F   0  0  0  0  0  0  0  0  0  0  0  0
    3.4456    2.1434    2.0651 C   0  0  0  0  0  0  0  0  0  0  0  0
    2.8914    1.5247    0.9428 C   0  0  0  0  0  0  0  0  0  0  0  0
    0.2331   -0.7201   -4.5170 H   0  0  0  0  0  0  0  0  0  0  0  0
    1.7245   -0.5327   -3.5755 H   0  0  0  0  0  0  0  0  0  0  0  0
    0.6392    0.8440   -3.7954 H   0  0  0  0  0  0  0  0  0  0  0  0
   -1.1394   -0.3062   -2.4831 H   0  0  0  0  0  0  0  0  0  0  0  0
    0.9024   -2.3650   -2.0642 H   0  0  0  0  0  0  0  0  0  0  0  0
   -0.5467   -2.3033   -1.3292 H   0  0  0  0  0  0  0  0  0  0  0  0
   -0.3315    1.2423    2.0249 H   0  0  0  0  0  0  0  0  0  0  0  0
    0.6708    2.3452    4.0181 H   0  0  0  0  0  0  0  0  0  0  0  0
    4.4991    2.4024    2.0929 H   0  0  0  0  0  0  0  0  0  0  0  0
    3.5229    1.2999    0.0865 H   0  0  0  0  0  0  0  0  0  0  0  0
  1  2  1  0
  2  3  1  0
  2  4  1  0
  4  5  3  0
  5  6  1  0
  6  7  2  0
  7  8  1  0
  8  9  2  0
  9 10  1  0
  9 11  1  0
 11 12  2  0
 12  6  1  0
  1 13  1  0
  1 14  1  0
  1 15  1  0
  2 16  1  6
  3 17  1  0
  3 18  1  0
  7 19  1  0
  8 20  1  0
 11 21  1  0
 12 22  1  0
M  END
