
     RDKit          3D

 19 19  0  0  0  0  0  0  0  0999 V2000
   -0.3311   -2.2602   -1.6789 C   0  0  0  0  0  0  0  0  0  0  0  0
   -0.2884   -2.5739   -0.1871 C   0  0  1  0  0  0  0  0  0  0  0  0
    0.7877   -3.5225    0.0829 N   0  0  0  0  0  0  0  0  0  0  0  0
   -0.0777   -1.3516    0.5990 C   0  0  0  0  0  0  0  0  0  0  0  0
    0.0915   -0.3511    1.2420 C   0  0  0  0  0  0  0  0  0  0  0  0
    0.2950    0.8399    2.0043 C   0  0  0  0  0  0  0  0  0  0  0  0
   -0.1369    0.9815    3.3041 C   0  0  0  0  0  0  0  0  0  0  0  0
    0.2554    2.5199    3.9476 S   0  0  0  0  0  0  0  0  0  0  0  0
    1.0046    3.0001    2.4851 C   0  0  0  0  0  0  0  0  0  0  0  0
    0.9560    2.0083    1.5290 C   0  0  0  0  0  0  0  0  0  0  0  0
   -1.1477   -1.5653   -1.9068 H   0  0  0  0  0  0  0  0  0  0  0  0
   -0.4941   -3.1700   -2.2675 H   0  0  0  0  0  0  0  0  0  0  0  0
    0.6001   -1.7953   -2.0247 H   0  0  0  0  0  0  0  0  0  0  0  0
   -1.2388   -3.0357    0.1026 H   0  0  0  0  0  0  0  0  0  0  0  0
    1.6791   -3.0927   -0.1607 H   0  0  0  0  0  0  0  0  0  0  0  0
    0.8271   -3.6972    1.0862 H   0  0  0  0  0  0  0  0  0  0  0  0
   -0.6645    0.2607    3.9136 H   0  0  0  0  0  0  0  0  0  0  0  0
    1.4435    3.9846    2.3975 H   0  0  0  0  0  0  0  0  0  0  0  0
    1.3757    2.1200    0.5367 H   0  0  0  0  0  0  0  0  0  0  0  0
  1  2  1  0
  2  3  1  0
  2  4  1  0
  4  5  3  0
  5  6  1  0
  6  7  2  0
  7  8  1  0
  8  9  1  0
  9 10  2  0
 10  6  1  0
  1 11  1  0
  1 12  1  0
  1 13  1  0
  2 14  1  1
  3 15  1  0
  3 16  1  0
  7 17  1  0
  9 18  1  0
 10 19  1  0
M  END
