
     RDKit          3D

 22 22  0  0  0  0  0  0  0  0999 V2000
    4.3654    0.8707   -0.0013 C   0  0  0  0  0  0  0  0  0  0  0  0
    3.5768   -0.2608    0.6491 C   0  0  1  0  0  0  0  0  0  0  0  0
    4.0504   -0.4673    2.0141 N   0  0  0  0  0  0  0  0  0  0  0  0
    2.1425    0.0478    0.6737 C   0  0  0  0  0  0  0  0  0  0  0  0
    0.9666    0.2949    0.6881 C   0  0  0  0  0  0  0  0  0  0  0  0
   -0.4315    0.5948    0.7131 C   0  0  0  0  0  0  0  0  0  0  0  0
   -0.9449    1.4342    1.7061 C   0  0  0  0  0  0  0  0  0  0  0  0
   -2.3107    1.7313    1.7357 C   0  0  0  0  0  0  0  0  0  0  0  0
   -3.1670    1.1914    0.7744 C   0  0  0  0  0  0  0  0  0  0  0  0
   -2.6580    0.3534   -0.2176 C   0  0  0  0  0  0  0  0  0  0  0  0
   -1.2962    0.0603   -0.2429 C   0  0  0  0  0  0  0  0  0  0  0  0
   -0.8315   -0.7489   -1.2075 F   0  0  0  0  0  0  0  0  0  0  0  0
    4.2413    1.8163    0.5401 H   0  0  0  0  0  0  0  0  0  0  0  0
    4.0296    1.0369   -1.0314 H   0  0  0  0  0  0  0  0  0  0  0  0
    5.4356    0.6375   -0.0339 H   0  0  0  0  0  0  0  0  0  0  0  0
    3.7398   -1.1812    0.0766 H   0  0  0  0  0  0  0  0  0  0  0  0
    5.0253   -0.7580    1.9911 H   0  0  0  0  0  0  0  0  0  0  0  0
    3.5290   -1.2390    2.4272 H   0  0  0  0  0  0  0  0  0  0  0  0
   -0.2851    1.8595    2.4593 H   0  0  0  0  0  0  0  0  0  0  0  0
   -2.7056    2.3850    2.5101 H   0  0  0  0  0  0  0  0  0  0  0  0
   -4.2288    1.4237    0.7989 H   0  0  0  0  0  0  0  0  0  0  0  0
   -3.3112   -0.0739   -0.9718 H   0  0  0  0  0  0  0  0  0  0  0  0
  1  2  1  0
  2  3  1  0
  2  4  1  0
  4  5  3  0
  5  6  1  0
  6  7  2  0
  7  8  1  0
  8  9  2  0
  9 10  1  0
 10 11  2  0
 11 12  1  0
 11  6  1  0
  1 13  1  0
  1 14  1  0
  1 15  1  0
  2 16  1  6
  3 17  1  0
  3 18  1  0
  7 19  1  0
  8 20  1  0
  9 21  1  0
 10 22  1  0
M  END
