
     RDKit          3D

 43 42  0  0  0  0  0  0  0  0999 V2000
   -3.5814   -1.3823    3.9957 C   0  0  0  0  0  0  0  0  0  0  0  0
   -3.6940   -2.0816    2.6478 C   0  0  0  0  0  0  0  0  0  0  0  0
   -3.9330   -1.1137    1.4835 C   0  0  0  0  0  0  0  0  0  0  0  0
   -2.8049   -0.2111    1.0543 C   0  0  0  0  0  0  0  0  0  0  0  0
   -1.5174   -0.2817    1.4260 C   0  0  0  0  0  0  0  0  0  0  0  0
   -0.5130    0.6402    0.9437 C   0  0  0  0  0  0  0  0  0  0  0  0
    0.7748    0.5654    1.3134 C   0  0  0  0  0  0  0  0  0  0  0  0
    1.9072    1.4658    0.8821 C   0  0  0  0  0  0  0  0  0  0  0  0
    1.7877    2.2474   -0.4499 C   0  0  1  0  0  0  0  0  0  0  0  0
    2.7104    3.3972   -0.4039 N   0  0  0  0  0  0  0  0  0  0  0  0
    2.1634    1.4176   -1.6964 C   0  0  0  0  0  0  0  0  0  0  0  0
    1.2235    0.2440   -1.9910 C   0  0  0  0  0  0  0  0  0  0  0  0
    1.5167   -0.4303   -3.3365 C   0  0  0  0  0  0  0  0  0  0  0  0
    2.8325   -1.1579   -3.3504 C   0  0  0  0  0  0  0  0  0  0  0  0
    3.9423   -0.8334   -4.0397 C   0  0  0  0  0  0  0  0  0  0  0  0
    4.1235    0.3647   -4.9276 C   0  0  0  0  0  0  0  0  0  0  0  0
    5.6254   -2.0783   -3.8706 I   0  0  0  0  0  0  0  0  0  0  0  0
   -4.4838   -0.8004    4.2097 H   0  0  0  0  0  0  0  0  0  0  0  0
   -3.4621   -2.1228    4.7932 H   0  0  0  0  0  0  0  0  0  0  0  0
   -2.7225   -0.7071    4.0363 H   0  0  0  0  0  0  0  0  0  0  0  0
   -4.5425   -2.7755    2.6963 H   0  0  0  0  0  0  0  0  0  0  0  0
   -2.8042   -2.6954    2.4680 H   0  0  0  0  0  0  0  0  0  0  0  0
   -4.7948   -0.4800    1.7291 H   0  0  0  0  0  0  0  0  0  0  0  0
   -4.2270   -1.7016    0.6047 H   0  0  0  0  0  0  0  0  0  0  0  0
   -3.1065    0.5665    0.3531 H   0  0  0  0  0  0  0  0  0  0  0  0
   -1.1832   -1.0562    2.1115 H   0  0  0  0  0  0  0  0  0  0  0  0
   -0.8495    1.4150    0.2609 H   0  0  0  0  0  0  0  0  0  0  0  0
    1.0739   -0.2083    2.0203 H   0  0  0  0  0  0  0  0  0  0  0  0
    2.0525    2.1726    1.7110 H   0  0  0  0  0  0  0  0  0  0  0  0
    2.8220    0.8585    0.8475 H   0  0  0  0  0  0  0  0  0  0  0  0
    0.7788    2.6545   -0.5726 H   0  0  0  0  0  0  0  0  0  0  0  0
    2.6098    3.9505   -1.2541 H   0  0  0  0  0  0  0  0  0  0  0  0
    2.4483    4.0120    0.3664 H   0  0  0  0  0  0  0  0  0  0  0  0
    2.1639    2.0798   -2.5732 H   0  0  0  0  0  0  0  0  0  0  0  0
    3.1907    1.0457   -1.5891 H   0  0  0  0  0  0  0  0  0  0  0  0
    0.1895    0.6080   -2.0121 H   0  0  0  0  0  0  0  0  0  0  0  0
    1.2922   -0.5055   -1.1953 H   0  0  0  0  0  0  0  0  0  0  0  0
    1.4387    0.3031   -4.1445 H   0  0  0  0  0  0  0  0  0  0  0  0
    0.7300   -1.1698   -3.5330 H   0  0  0  0  0  0  0  0  0  0  0  0
    2.8445   -2.0527   -2.7279 H   0  0  0  0  0  0  0  0  0  0  0  0
    3.2701    1.0464   -4.9068 H   0  0  0  0  0  0  0  0  0  0  0  0
    4.9971    0.9471   -4.6148 H   0  0  0  0  0  0  0  0  0  0  0  0
    4.2698    0.0512   -5.9667 H   0  0  0  0  0  0  0  0  0  0  0  0
  1  2  1  0
  2  3  1  0
  3  4  1  0
  4  5  2  0
  5  6  1  0
  6  7  2  0
  7  8  1  0
  8  9  1  0
  9 10  1  0
  9 11  1  0
 11 12  1  0
 12 13  1  0
 13 14  1  0
 14 15  2  0
 15 16  1  0
 15 17  1  0
  1 18  1  0
  1 19  1  0
  1 20  1  0
  2 21  1  0
  2 22  1  0
  3 23  1  0
  3 24  1  0
  4 25  1  0
  5 26  1  0
  6 27  1  0
  7 28  1  0
  8 29  1  0
  8 30  1  0
  9 31  1  6
 10 32  1  0
 10 33  1  0
 11 34  1  0
 11 35  1  0
 12 36  1  0
 12 37  1  0
 13 38  1  0
 13 39  1  0
 14 40  1  0
 16 41  1  0
 16 42  1  0
 16 43  1  0
M  END
