
     RDKit          3D

 28 27  0  0  0  0  0  0  0  0999 V2000
   -1.5777   -2.4075    2.3459 C   0  0  1  0  0  0  0  0  0  0  0  0
   -0.1097   -2.7306    2.6121 C   0  0  0  0  0  0  0  0  0  0  0  0
   -1.9460   -1.1831    3.0536 N   0  0  0  0  0  0  0  0  0  0  0  0
   -1.9145   -2.3273    0.8452 C   0  0  0  0  0  0  0  0  0  0  0  0
   -1.0392   -1.4304   -0.0427 C   0  0  0  0  0  0  0  0  0  0  0  0
   -1.1191    0.0618    0.2834 C   0  0  0  0  0  0  0  0  0  0  0  0
   -0.4752    0.9496   -0.7876 C   0  0  0  0  0  0  0  0  0  0  0  0
    1.0343    0.7428   -0.9187 C   0  0  0  0  0  0  0  0  0  0  0  0
    1.6434    1.7203   -1.9123 C   0  0  0  0  0  0  0  0  0  0  0  0
   -2.1812   -3.2201    2.7696 H   0  0  0  0  0  0  0  0  0  0  0  0
    0.5532   -1.9135    2.3078 H   0  0  0  0  0  0  0  0  0  0  0  0
    0.0606   -2.9124    3.6794 H   0  0  0  0  0  0  0  0  0  0  0  0
    0.1922   -3.6336    2.0709 H   0  0  0  0  0  0  0  0  0  0  0  0
   -2.9417   -1.0025    2.9336 H   0  0  0  0  0  0  0  0  0  0  0  0
   -1.7922   -1.3027    4.0539 H   0  0  0  0  0  0  0  0  0  0  0  0
   -2.9653   -2.0315    0.7244 H   0  0  0  0  0  0  0  0  0  0  0  0
   -1.8488   -3.3456    0.4383 H   0  0  0  0  0  0  0  0  0  0  0  0
   -1.3635   -1.5802   -1.0806 H   0  0  0  0  0  0  0  0  0  0  0  0
    0.0003   -1.7726    0.0029 H   0  0  0  0  0  0  0  0  0  0  0  0
   -0.6347    0.2654    1.2443 H   0  0  0  0  0  0  0  0  0  0  0  0
   -2.1714    0.3549    0.3812 H   0  0  0  0  0  0  0  0  0  0  0  0
   -0.9597    0.7696   -1.7550 H   0  0  0  0  0  0  0  0  0  0  0  0
   -0.6725    1.9969   -0.5268 H   0  0  0  0  0  0  0  0  0  0  0  0
    1.5153    0.8760    0.0571 H   0  0  0  0  0  0  0  0  0  0  0  0
    1.2513   -0.2772   -1.2534 H   0  0  0  0  0  0  0  0  0  0  0  0
    1.2032    1.5940   -2.9066 H   0  0  0  0  0  0  0  0  0  0  0  0
    2.7221    1.5542   -1.9945 H   0  0  0  0  0  0  0  0  0  0  0  0
    1.4828    2.7552   -1.5938 H   0  0  0  0  0  0  0  0  0  0  0  0
  1  2  1  0
  1  3  1  0
  1  4  1  0
  4  5  1  0
  5  6  1  0
  6  7  1  0
  7  8  1  0
  8  9  1  0
  1 10  1  1
  2 11  1  0
  2 12  1  0
  2 13  1  0
  3 14  1  0
  3 15  1  0
  4 16  1  0
  4 17  1  0
  5 18  1  0
  5 19  1  0
  6 20  1  0
  6 21  1  0
  7 22  1  0
  7 23  1  0
  8 24  1  0
  8 25  1  0
  9 26  1  0
  9 27  1  0
  9 28  1  0
M  END
