
     RDKit          3D

 22 21  0  0  0  0  0  0  0  0999 V2000
   -3.3373    0.0178   -1.6237 C   0  0  0  0  0  0  0  0  0  0  0  0
   -2.8779   -0.8403   -0.4590 C   0  0  0  0  0  0  0  0  0  0  0  0
   -1.4888   -0.0890    0.4517 S   0  0  0  0  0  0  0  0  0  0  0  0
   -0.1629   -0.2972   -0.7842 C   0  0  0  0  0  0  0  0  0  0  0  0
    1.2114    0.0841   -0.2202 C   0  0  0  0  0  0  0  0  0  0  0  0
    1.7080   -0.7840    0.9457 C   0  0  2  0  0  0  0  0  0  0  0  0
    2.9218   -0.1566    1.5251 N   0  0  0  0  0  0  0  0  0  0  0  0
    2.0417   -2.2159    0.5113 C   0  0  0  0  0  0  0  0  0  0  0  0
    2.6977   -2.9806    1.4012 F   0  0  0  0  0  0  0  0  0  0  0  0
    1.7234   -2.7536   -0.5394 O   0  0  0  0  0  0  0  0  0  0  0  0
   -2.5678    0.1047   -2.3965 H   0  0  0  0  0  0  0  0  0  0  0  0
   -4.2178   -0.4350   -2.0918 H   0  0  0  0  0  0  0  0  0  0  0  0
   -3.6183    1.0241   -1.2952 H   0  0  0  0  0  0  0  0  0  0  0  0
   -3.7052   -0.9613    0.2477 H   0  0  0  0  0  0  0  0  0  0  0  0
   -2.5931   -1.8404   -0.8005 H   0  0  0  0  0  0  0  0  0  0  0  0
   -0.3796    0.3583   -1.6336 H   0  0  0  0  0  0  0  0  0  0  0  0
   -0.1710   -1.3271   -1.1481 H   0  0  0  0  0  0  0  0  0  0  0  0
    1.1778    1.1381    0.0889 H   0  0  0  0  0  0  0  0  0  0  0  0
    1.9372    0.0324   -1.0434 H   0  0  0  0  0  0  0  0  0  0  0  0
    0.9593   -0.8558    1.7401 H   0  0  0  0  0  0  0  0  0  0  0  0
    2.6797    0.7678    1.8836 H   0  0  0  0  0  0  0  0  0  0  0  0
    3.2268   -0.6995    2.3353 H   0  0  0  0  0  0  0  0  0  0  0  0
  1  2  1  0
  2  3  1  0
  3  4  1  0
  4  5  1  0
  5  6  1  0
  6  7  1  0
  6  8  1  0
  8  9  1  0
  8 10  2  0
  1 11  1  0
  1 12  1  0
  1 13  1  0
  2 14  1  0
  2 15  1  0
  4 16  1  0
  4 17  1  0
  5 18  1  0
  5 19  1  0
  6 20  1  1
  7 21  1  0
  7 22  1  0
M  END
