
     RDKit          3D

 17 16  0  0  0  0  0  0  0  0999 V2000
   -1.2738   -1.6888   -2.4345 N   0  0  0  0  0  0  0  0  0  0  0  0
   -0.6633   -0.3560   -2.2667 C   0  0  1  0  0  0  0  0  0  0  0  0
   -1.7364    0.7472   -2.4117 C   0  0  0  0  0  0  0  0  0  0  0  0
   -2.5145    0.7234   -4.0577 S   0  0  0  0  0  0  0  0  0  0  0  0
    0.0576   -0.2849   -0.9146 C   0  0  0  0  0  0  0  0  0  0  0  0
    1.1100    1.1350   -0.7999 S   0  0  0  0  0  6  0  0  0  0  0  0
    0.2586    2.5351    0.4319 S   0  0  0  0  0  0  0  0  0  0  0  0
    2.8945    0.6038    0.0560 S   0  0  0  0  0  0  0  0  0  0  0  0
   -1.9506   -1.8766   -1.6930 H   0  0  0  0  0  0  0  0  0  0  0  0
   -0.5676   -2.4234   -2.3704 H   0  0  0  0  0  0  0  0  0  0  0  0
    0.0795   -0.2325   -3.0653 H   0  0  0  0  0  0  0  0  0  0  0  0
   -1.3015    1.7415   -2.2842 H   0  0  0  0  0  0  0  0  0  0  0  0
   -2.5212    0.6245   -1.6571 H   0  0  0  0  0  0  0  0  0  0  0  0
   -2.7105   -0.6065   -4.0846 H   0  0  0  0  0  0  0  0  0  0  0  0
   -0.6496   -0.2789   -0.0788 H   0  0  0  0  0  0  0  0  0  0  0  0
    0.6981   -1.1663   -0.7945 H   0  0  0  0  0  0  0  0  0  0  0  0
    1.3333    1.6674   -2.0243 H   0  0  0  0  0  0  0  0  0  0  0  0
  1  2  1  0
  2  3  1  0
  3  4  1  0
  2  5  1  0
  5  6  1  0
  6  7  2  0
  6  8  2  0
  1  9  1  0
  1 10  1  0
  2 11  1  6
  3 12  1  0
  3 13  1  0
  4 14  1  0
  5 15  1  0
  5 16  1  0
  6 17  1  0
M  END
