
     RDKit          3D

 37 37  0  0  0  0  0  0  0  0999 V2000
    1.2119   -1.7842   -3.6065 C   0  0  0  0  0  0  0  0  0  0  0  0
   -0.1524   -1.1076   -3.6007 C   0  0  0  0  0  0  0  0  0  0  0  0
   -0.4238   -0.1820   -2.3909 C   0  0  2  0  0  0  0  0  0  0  0  0
    0.5113    1.0351   -2.4335 C   0  0  0  0  0  0  0  0  0  0  0  0
   -0.3466   -0.9068   -1.0238 C   0  0  2  0  0  0  0  0  0  0  0  0
   -1.2263   -2.0943   -1.0057 N   0  0  0  0  0  0  0  0  0  0  0  0
   -0.8048    0.0289    0.1180 C   0  0  0  0  0  0  0  0  0  0  0  0
   -1.9974    0.3059    0.2676 O   0  0  0  0  0  0  0  0  0  0  0  0
    0.2852    0.5547    1.0581 C   0  0  0  0  0  0  0  0  0  0  0  0
   -0.1083    1.8756    1.7335 C   0  0  0  0  0  0  0  0  0  0  0  0
   -1.0695    1.7108    2.9108 C   0  0  0  0  0  0  0  0  0  0  0  0
   -0.5908    0.6551    3.8994 C   0  0  0  0  0  0  0  0  0  0  0  0
   -0.3213   -0.6750    3.2068 C   0  0  0  0  0  0  0  0  0  0  0  0
    0.6897   -0.5190    2.0736 C   0  0  0  0  0  0  0  0  0  0  0  0
    1.3164   -2.4003   -4.5057 H   0  0  0  0  0  0  0  0  0  0  0  0
    2.0247   -1.0524   -3.6121 H   0  0  0  0  0  0  0  0  0  0  0  0
    1.3407   -2.4407   -2.7414 H   0  0  0  0  0  0  0  0  0  0  0  0
   -0.9280   -1.8809   -3.6545 H   0  0  0  0  0  0  0  0  0  0  0  0
   -0.2530   -0.5228   -4.5240 H   0  0  0  0  0  0  0  0  0  0  0  0
   -1.4447    0.2063   -2.5187 H   0  0  0  0  0  0  0  0  0  0  0  0
    0.1877    1.8045   -1.7251 H   0  0  0  0  0  0  0  0  0  0  0  0
    1.5418    0.7621   -2.1854 H   0  0  0  0  0  0  0  0  0  0  0  0
    0.5101    1.4943   -3.4279 H   0  0  0  0  0  0  0  0  0  0  0  0
    0.6767   -1.2390   -0.8220 H   0  0  0  0  0  0  0  0  0  0  0  0
   -2.1900   -1.7614   -1.1136 H   0  0  0  0  0  0  0  0  0  0  0  0
   -1.2075   -2.5144   -0.0761 H   0  0  0  0  0  0  0  0  0  0  0  0
    1.1516    0.7704    0.4197 H   0  0  0  0  0  0  0  0  0  0  0  0
    0.8057    2.3580    2.1041 H   0  0  0  0  0  0  0  0  0  0  0  0
   -0.5481    2.5632    1.0009 H   0  0  0  0  0  0  0  0  0  0  0  0
   -1.1800    2.6718    3.4266 H   0  0  0  0  0  0  0  0  0  0  0  0
   -2.0667    1.4398    2.5463 H   0  0  0  0  0  0  0  0  0  0  0  0
    0.3247    1.0039    4.3930 H   0  0  0  0  0  0  0  0  0  0  0  0
   -1.3434    0.5171    4.6839 H   0  0  0  0  0  0  0  0  0  0  0  0
   -1.2599   -1.0843    2.8142 H   0  0  0  0  0  0  0  0  0  0  0  0
    0.0586   -1.3979    3.9379 H   0  0  0  0  0  0  0  0  0  0  0  0
    0.8289   -1.4893    1.5836 H   0  0  0  0  0  0  0  0  0  0  0  0
    1.6610   -0.2454    2.5057 H   0  0  0  0  0  0  0  0  0  0  0  0
  1  2  1  0
  2  3  1  0
  3  4  1  0
  3  5  1  0
  5  6  1  0
  5  7  1  0
  7  8  2  0
  7  9  1  0
  9 10  1  0
 10 11  1  0
 11 12  1  0
 12 13  1  0
 13 14  1  0
 14  9  1  0
  1 15  1  0
  1 16  1  0
  1 17  1  0
  2 18  1  0
  2 19  1  0
  3 20  1  6
  4 21  1  0
  4 22  1  0
  4 23  1  0
  5 24  1  1
  6 25  1  0
  6 26  1  0
  9 27  1  0
 10 28  1  0
 10 29  1  0
 11 30  1  0
 11 31  1  0
 12 32  1  0
 12 33  1  0
 13 34  1  0
 13 35  1  0
 14 36  1  0
 14 37  1  0
M  END
