
     RDKit          3D

 26 25  0  0  0  0  0  0  0  0999 V2000
    1.0459   -2.2633   -0.6023 C   0  0  0  0  0  0  0  0  0  0  0  0
   -0.0253   -1.9197    0.4433 C   0  0  0  0  0  0  0  0  0  0  0  0
    0.0334   -2.9499    1.5847 C   0  0  0  0  0  0  0  0  0  0  0  0
    0.1310   -0.4710    0.9981 C   0  0  0  0  0  0  0  0  0  0  0  0
    1.4637   -0.1167    1.6822 C   0  0  2  0  0  0  0  0  0  0  0  0
    1.2704    1.1090    2.4935 N   0  0  0  0  0  0  0  0  0  0  0  0
    2.6239    0.1470    0.6975 C   0  0  0  0  0  0  0  0  0  0  0  0
    2.4486    1.1759   -0.1864 N   0  0  0  0  0  0  0  0  0  0  0  0
    3.6762   -0.4839    0.7139 O   0  0  0  0  0  0  0  0  0  0  0  0
   -1.4043   -2.0286   -0.2359 C   0  0  0  0  0  0  0  0  0  0  0  0
   -2.3906   -1.7205    0.6427 F   0  0  0  0  0  0  0  0  0  0  0  0
   -1.4942   -1.1282   -1.2490 F   0  0  0  0  0  0  0  0  0  0  0  0
    2.0347   -2.3748   -0.1488 H   0  0  0  0  0  0  0  0  0  0  0  0
    1.1057   -1.4941   -1.3797 H   0  0  0  0  0  0  0  0  0  0  0  0
    0.8196   -3.2151   -1.0974 H   0  0  0  0  0  0  0  0  0  0  0  0
   -0.1920   -3.9574    1.2160 H   0  0  0  0  0  0  0  0  0  0  0  0
    1.0253   -2.9910    2.0456 H   0  0  0  0  0  0  0  0  0  0  0  0
   -0.6932   -2.7146    2.3701 H   0  0  0  0  0  0  0  0  0  0  0  0
   -0.0685    0.2400    0.1863 H   0  0  0  0  0  0  0  0  0  0  0  0
   -0.6780   -0.3146    1.7270 H   0  0  0  0  0  0  0  0  0  0  0  0
    1.7719   -0.9132    2.3656 H   0  0  0  0  0  0  0  0  0  0  0  0
    2.1384    1.2918    3.0013 H   0  0  0  0  0  0  0  0  0  0  0  0
    1.1502    1.9086    1.8730 H   0  0  0  0  0  0  0  0  0  0  0  0
    3.1773    1.3032   -0.8776 H   0  0  0  0  0  0  0  0  0  0  0  0
    1.5364    1.5582   -0.3924 H   0  0  0  0  0  0  0  0  0  0  0  0
   -1.6014   -3.0259   -0.6413 H   0  0  0  0  0  0  0  0  0  0  0  0
  1  2  1  0
  2  3  1  0
  2  4  1  0
  4  5  1  0
  5  6  1  0
  5  7  1  0
  7  8  1  0
  7  9  2  0
  2 10  1  0
 10 11  1  0
 10 12  1  0
  1 13  1  0
  1 14  1  0
  1 15  1  0
  3 16  1  0
  3 17  1  0
  3 18  1  0
  4 19  1  0
  4 20  1  0
  5 21  1  1
  6 22  1  0
  6 23  1  0
  8 24  1  0
  8 25  1  0
 10 26  1  0
M  END
