
     RDKit          3D

 36 37  0  0  0  0  0  0  0  0999 V2000
   -0.1605   -0.3074   -2.0794 C   0  0  0  0  0  0  0  0  0  0  0  0
    1.1394   -0.2501   -2.8947 C   0  0  0  0  0  0  0  0  0  0  0  0
   -1.1838    0.4210   -2.8488 N   0  0  0  0  0  0  0  0  0  0  0  0
    0.0301    0.2775   -0.6402 C   0  0  1  0  0  0  0  0  0  0  0  0
   -1.2911    0.2929    0.1741 C   0  0  0  0  0  0  0  0  0  0  0  0
   -1.2105    1.1126    1.4453 C   0  0  0  0  0  0  0  0  0  0  0  0
   -1.3203    2.5093    1.3923 C   0  0  0  0  0  0  0  0  0  0  0  0
   -1.2345    3.2708    2.5586 C   0  0  0  0  0  0  0  0  0  0  0  0
   -1.0349    2.6448    3.7874 C   0  0  0  0  0  0  0  0  0  0  0  0
   -0.9196    1.2573    3.8507 C   0  0  0  0  0  0  0  0  0  0  0  0
   -1.0069    0.4939    2.6855 C   0  0  0  0  0  0  0  0  0  0  0  0
    1.1194   -0.4687    0.1340 C   0  0  0  0  0  0  0  0  0  0  0  0
    2.2165    0.2417    0.6456 C   0  0  0  0  0  0  0  0  0  0  0  0
    3.2189   -0.4145    1.3617 C   0  0  0  0  0  0  0  0  0  0  0  0
    3.1378   -1.7880    1.5777 C   0  0  0  0  0  0  0  0  0  0  0  0
    2.0524   -2.5061    1.0814 C   0  0  0  0  0  0  0  0  0  0  0  0
    1.0478   -1.8518    0.3659 C   0  0  0  0  0  0  0  0  0  0  0  0
   -0.4787   -1.3551   -2.0186 H   0  0  0  0  0  0  0  0  0  0  0  0
    1.9247   -0.8653   -2.4445 H   0  0  0  0  0  0  0  0  0  0  0  0
    1.5158    0.7760   -2.9750 H   0  0  0  0  0  0  0  0  0  0  0  0
    0.9848   -0.6324   -3.9105 H   0  0  0  0  0  0  0  0  0  0  0  0
   -1.1883    0.0878   -3.8132 H   0  0  0  0  0  0  0  0  0  0  0  0
   -2.1111    0.2078   -2.4841 H   0  0  0  0  0  0  0  0  0  0  0  0
    0.3570    1.3205   -0.7659 H   0  0  0  0  0  0  0  0  0  0  0  0
   -2.1079    0.7209   -0.4189 H   0  0  0  0  0  0  0  0  0  0  0  0
   -1.6144   -0.7285    0.4135 H   0  0  0  0  0  0  0  0  0  0  0  0
   -1.4716    3.0108    0.4388 H   0  0  0  0  0  0  0  0  0  0  0  0
   -1.3212    4.3528    2.5074 H   0  0  0  0  0  0  0  0  0  0  0  0
   -0.9653    3.2378    4.6951 H   0  0  0  0  0  0  0  0  0  0  0  0
   -0.7560    0.7681    4.8070 H   0  0  0  0  0  0  0  0  0  0  0  0
   -0.9014   -0.5866    2.7500 H   0  0  0  0  0  0  0  0  0  0  0  0
    2.2921    1.3170    0.4977 H   0  0  0  0  0  0  0  0  0  0  0  0
    4.0605    0.1497    1.7547 H   0  0  0  0  0  0  0  0  0  0  0  0
    3.9182   -2.2971    2.1368 H   0  0  0  0  0  0  0  0  0  0  0  0
    1.9865   -3.5771    1.2542 H   0  0  0  0  0  0  0  0  0  0  0  0
    0.2072   -2.4338   -0.0032 H   0  0  0  0  0  0  0  0  0  0  0  0
  1  2  1  0
  1  3  1  0
  1  4  1  0
  4  5  1  0
  5  6  1  0
  6  7  2  0
  7  8  1  0
  8  9  2  0
  9 10  1  0
 10 11  2  0
  4 12  1  0
 12 13  2  0
 13 14  1  0
 14 15  2  0
 15 16  1  0
 16 17  2  0
 11  6  1  0
 17 12  1  0
  1 18  1  0
  2 19  1  0
  2 20  1  0
  2 21  1  0
  3 22  1  0
  3 23  1  0
  4 24  1  6
  5 25  1  0
  5 26  1  0
  7 27  1  0
  8 28  1  0
  9 29  1  0
 10 30  1  0
 11 31  1  0
 13 32  1  0
 14 33  1  0
 15 34  1  0
 16 35  1  0
 17 36  1  0
M  END
