
     RDKit          3D

 37 38  0  0  0  0  0  0  0  0999 V2000
   -2.7011    0.1957   -0.2502 C   0  0  2  0  0  0  0  0  0  0  0  0
   -4.0043    0.1015    0.4498 N   0  0  0  0  0  0  0  0  0  0  0  0
   -1.7123   -0.8330    0.3519 C   0  0  0  0  0  0  0  0  0  0  0  0
   -0.4838   -1.4304   -0.8604 S   0  0  0  0  0  0  0  0  0  0  0  0
    0.5747   -2.4206    0.2390 C   0  0  0  0  0  0  0  0  0  0  0  0
    1.3349   -1.6005    1.2510 C   0  0  0  0  0  0  0  0  0  0  0  0
    1.0805   -1.7458    2.6228 C   0  0  0  0  0  0  0  0  0  0  0  0
    1.7861   -0.9879    3.5594 C   0  0  0  0  0  0  0  0  0  0  0  0
    2.7556   -0.0806    3.1366 C   0  0  0  0  0  0  0  0  0  0  0  0
    3.0227    0.0688    1.7777 C   0  0  0  0  0  0  0  0  0  0  0  0
    2.3185   -0.6881    0.8401 C   0  0  0  0  0  0  0  0  0  0  0  0
   -2.2096    1.6577   -0.1160 C   0  0  0  0  0  0  0  0  0  0  0  0
   -1.0013    2.0165   -0.9458 C   0  0  0  0  0  0  0  0  0  0  0  0
    0.2371    2.2578   -0.3355 C   0  0  0  0  0  0  0  0  0  0  0  0
    1.3522    2.5937   -1.1051 C   0  0  0  0  0  0  0  0  0  0  0  0
    1.2408    2.6924   -2.4903 C   0  0  0  0  0  0  0  0  0  0  0  0
    0.0138    2.4569   -3.1075 C   0  0  0  0  0  0  0  0  0  0  0  0
   -1.1027    2.1223   -2.3397 C   0  0  0  0  0  0  0  0  0  0  0  0
   -2.8997   -0.0358   -1.3036 H   0  0  0  0  0  0  0  0  0  0  0  0
   -3.8711    0.2402    1.4509 H   0  0  0  0  0  0  0  0  0  0  0  0
   -4.3817   -0.8390    0.3351 H   0  0  0  0  0  0  0  0  0  0  0  0
   -1.2144   -0.4030    1.2264 H   0  0  0  0  0  0  0  0  0  0  0  0
   -2.2557   -1.7246    0.6856 H   0  0  0  0  0  0  0  0  0  0  0  0
    1.2952   -2.9658   -0.3814 H   0  0  0  0  0  0  0  0  0  0  0  0
   -0.0444   -3.1798    0.7298 H   0  0  0  0  0  0  0  0  0  0  0  0
    0.3297   -2.4505    2.9728 H   0  0  0  0  0  0  0  0  0  0  0  0
    1.5813   -1.1070    4.6202 H   0  0  0  0  0  0  0  0  0  0  0  0
    3.3051    0.5083    3.8663 H   0  0  0  0  0  0  0  0  0  0  0  0
    3.7788    0.7751    1.4453 H   0  0  0  0  0  0  0  0  0  0  0  0
    2.5326   -0.5554   -0.2193 H   0  0  0  0  0  0  0  0  0  0  0  0
   -2.0110    1.8863    0.9403 H   0  0  0  0  0  0  0  0  0  0  0  0
   -3.0169    2.3435   -0.4110 H   0  0  0  0  0  0  0  0  0  0  0  0
    0.3456    2.1758    0.7437 H   0  0  0  0  0  0  0  0  0  0  0  0
    2.3083    2.7741   -0.6219 H   0  0  0  0  0  0  0  0  0  0  0  0
    2.1094    2.9511   -3.0893 H   0  0  0  0  0  0  0  0  0  0  0  0
   -0.0747    2.5317   -4.1878 H   0  0  0  0  0  0  0  0  0  0  0  0
   -2.0538    1.9418   -2.8353 H   0  0  0  0  0  0  0  0  0  0  0  0
  1  2  1  0
  1  3  1  0
  3  4  1  0
  4  5  1  0
  5  6  1  0
  6  7  2  0
  7  8  1  0
  8  9  2  0
  9 10  1  0
 10 11  2  0
  1 12  1  0
 12 13  1  0
 13 14  2  0
 14 15  1  0
 15 16  2  0
 16 17  1  0
 17 18  2  0
 11  6  1  0
 18 13  1  0
  1 19  1  6
  2 20  1  0
  2 21  1  0
  3 22  1  0
  3 23  1  0
  5 24  1  0
  5 25  1  0
  7 26  1  0
  8 27  1  0
  9 28  1  0
 10 29  1  0
 11 30  1  0
 12 31  1  0
 12 32  1  0
 14 33  1  0
 15 34  1  0
 16 35  1  0
 17 36  1  0
 18 37  1  0
M  END
