
     RDKit          3D

 31 31  0  0  0  0  0  0  0  0999 V2000
    1.1015   -3.9094   -1.1790 C   0  0  0  0  0  0  0  0  0  0  0  0
    0.8340   -2.7075   -0.2867 C   0  0  0  0  0  0  0  0  0  0  0  0
   -0.6184   -2.2266   -0.3273 C   0  0  0  0  0  0  0  0  0  0  0  0
   -1.1433   -1.8007   -1.7073 C   0  0  0  0  0  0  0  0  0  0  0  0
   -0.3413   -0.6838   -2.3938 C   0  0  1  0  0  0  0  0  0  0  0  0
   -0.9173   -0.4251   -3.7131 N   0  0  0  0  0  0  0  0  0  0  0  0
   -0.3655    0.5632   -1.6182 C   0  0  0  0  0  0  0  0  0  0  0  0
   -0.3803    1.5821   -0.9814 C   0  0  0  0  0  0  0  0  0  0  0  0
   -0.4047    2.7949   -0.2241 C   0  0  0  0  0  0  0  0  0  0  0  0
   -1.3829    3.7584   -0.4802 C   0  0  0  0  0  0  0  0  0  0  0  0
   -1.4077    4.9428    0.2588 C   0  0  0  0  0  0  0  0  0  0  0  0
   -0.4554    5.1644    1.2537 C   0  0  0  0  0  0  0  0  0  0  0  0
    0.5221    4.2030    1.5111 C   0  0  0  0  0  0  0  0  0  0  0  0
    0.5479    3.0181    0.7727 C   0  0  0  0  0  0  0  0  0  0  0  0
    0.9878   -3.6566   -2.2372 H   0  0  0  0  0  0  0  0  0  0  0  0
    0.4199   -4.7329   -0.9437 H   0  0  0  0  0  0  0  0  0  0  0  0
    2.1262   -4.2655   -1.0319 H   0  0  0  0  0  0  0  0  0  0  0  0
    1.5149   -1.8926   -0.5552 H   0  0  0  0  0  0  0  0  0  0  0  0
    1.0760   -2.9817    0.7474 H   0  0  0  0  0  0  0  0  0  0  0  0
   -1.2654   -3.0286    0.0505 H   0  0  0  0  0  0  0  0  0  0  0  0
   -0.7294   -1.3944    0.3783 H   0  0  0  0  0  0  0  0  0  0  0  0
   -2.1880   -1.4827   -1.5815 H   0  0  0  0  0  0  0  0  0  0  0  0
   -1.1751   -2.6836   -2.3589 H   0  0  0  0  0  0  0  0  0  0  0  0
    0.6962   -1.0034   -2.5386 H   0  0  0  0  0  0  0  0  0  0  0  0
   -0.3765    0.3087   -4.1682 H   0  0  0  0  0  0  0  0  0  0  0  0
   -0.8206   -1.2565   -4.2915 H   0  0  0  0  0  0  0  0  0  0  0  0
   -2.1285    3.5908   -1.2538 H   0  0  0  0  0  0  0  0  0  0  0  0
   -2.1700    5.6911    0.0583 H   0  0  0  0  0  0  0  0  0  0  0  0
   -0.4755    6.0865    1.8290 H   0  0  0  0  0  0  0  0  0  0  0  0
    1.2636    4.3754    2.2867 H   0  0  0  0  0  0  0  0  0  0  0  0
    1.3120    2.2730    0.9792 H   0  0  0  0  0  0  0  0  0  0  0  0
  1  2  1  0
  2  3  1  0
  3  4  1  0
  4  5  1  0
  5  6  1  0
  5  7  1  0
  7  8  3  0
  8  9  1  0
  9 10  2  0
 10 11  1  0
 11 12  2  0
 12 13  1  0
 13 14  2  0
 14  9  1  0
  1 15  1  0
  1 16  1  0
  1 17  1  0
  2 18  1  0
  2 19  1  0
  3 20  1  0
  3 21  1  0
  4 22  1  0
  4 23  1  0
  5 24  1  6
  6 25  1  0
  6 26  1  0
 10 27  1  0
 11 28  1  0
 12 29  1  0
 13 30  1  0
 14 31  1  0
M  END
