
     RDKit          3D

 24 24  0  0  0  0  0  0  0  0999 V2000
    1.7456    0.4721    1.1056 N   0  0  0  0  0  0  0  0  0  0  0  0
    0.8507   -0.0469    0.0437 C   0  0  1  0  0  0  0  0  0  0  0  0
    0.3053    1.0788   -0.8557 C   0  0  0  0  0  0  0  0  0  0  0  0
   -0.9527    1.7211   -0.3126 C   0  0  0  0  0  0  0  0  0  0  0  0
   -0.9011    2.5420    0.8230 C   0  0  0  0  0  0  0  0  0  0  0  0
   -2.0627    3.1308    1.3274 C   0  0  0  0  0  0  0  0  0  0  0  0
   -3.2829    2.9031    0.6968 C   0  0  0  0  0  0  0  0  0  0  0  0
   -4.7155    3.6271    1.3167 Cl  0  0  0  0  0  0  0  0  0  0  0  0
   -3.3512    2.0918   -0.4336 C   0  0  0  0  0  0  0  0  0  0  0  0
   -2.1892    1.5019   -0.9373 C   0  0  0  0  0  0  0  0  0  0  0  0
    1.6298   -1.0595   -0.8185 C   0  0  0  0  0  0  0  0  0  0  0  0
    0.8685   -1.9278   -1.5475 N   0  0  0  0  0  0  0  0  0  0  0  0
    2.8558   -1.1035   -0.8760 O   0  0  0  0  0  0  0  0  0  0  0  0
    2.5896    0.8254    0.6433 H   0  0  0  0  0  0  0  0  0  0  0  0
    2.0904   -0.3257    1.6436 H   0  0  0  0  0  0  0  0  0  0  0  0
    0.0298   -0.5887    0.5296 H   0  0  0  0  0  0  0  0  0  0  0  0
    0.0972    0.6956   -1.8634 H   0  0  0  0  0  0  0  0  0  0  0  0
    1.0641    1.8587   -1.0075 H   0  0  0  0  0  0  0  0  0  0  0  0
    0.0480    2.7234    1.3253 H   0  0  0  0  0  0  0  0  0  0  0  0
   -2.0057    3.7622    2.2098 H   0  0  0  0  0  0  0  0  0  0  0  0
   -4.3031    1.9170   -0.9275 H   0  0  0  0  0  0  0  0  0  0  0  0
   -2.2584    0.8753   -1.8236 H   0  0  0  0  0  0  0  0  0  0  0  0
   -0.1020   -2.1004   -1.3218 H   0  0  0  0  0  0  0  0  0  0  0  0
    1.3701   -2.6554   -2.0423 H   0  0  0  0  0  0  0  0  0  0  0  0
  1  2  1  0
  2  3  1  0
  3  4  1  0
  4  5  2  0
  5  6  1  0
  6  7  2  0
  7  8  1  0
  7  9  1  0
  9 10  2  0
  2 11  1  0
 11 12  1  0
 11 13  2  0
 10  4  1  0
  1 14  1  0
  1 15  1  0
  2 16  1  1
  3 17  1  0
  3 18  1  0
  5 19  1  0
  6 20  1  0
  9 21  1  0
 10 22  1  0
 12 23  1  0
 12 24  1  0
M  END
