
     RDKit          3D

 24 23  0  0  0  0  0  0  0  0999 V2000
   -0.2124   -1.0525    1.1644 C   0  0  1  0  0  0  0  0  0  0  0  0
    0.0978   -1.6359   -0.1566 N   0  0  0  0  0  0  0  0  0  0  0  0
   -0.6675    0.4067    1.0265 C   0  0  0  0  0  0  0  0  0  0  0  0
    0.4265    1.2960    0.4380 C   0  0  0  0  0  0  0  0  0  0  0  0
    0.0014    3.0723    0.5228 S   0  0  0  0  0  0  0  0  0  0  0  0
   -1.4185    3.1595   -0.6191 C   0  0  0  0  0  0  0  0  0  0  0  0
   -1.0542    2.8157   -2.0517 C   0  0  0  0  0  0  0  0  0  0  0  0
   -1.3054   -1.8966    1.8541 C   0  0  0  0  0  0  0  0  0  0  0  0
   -1.5389   -1.6116    3.1674 N   0  0  0  0  0  0  0  0  0  0  0  0
   -1.9394   -2.7817    1.2851 O   0  0  0  0  0  0  0  0  0  0  0  0
    0.6910   -1.1083    1.7835 H   0  0  0  0  0  0  0  0  0  0  0  0
   -0.7867   -1.7247   -0.6672 H   0  0  0  0  0  0  0  0  0  0  0  0
    0.3703   -2.6115   -0.0090 H   0  0  0  0  0  0  0  0  0  0  0  0
   -1.5712    0.4457    0.4058 H   0  0  0  0  0  0  0  0  0  0  0  0
   -0.9550    0.7874    2.0150 H   0  0  0  0  0  0  0  0  0  0  0  0
    0.6649    1.0255   -0.5942 H   0  0  0  0  0  0  0  0  0  0  0  0
    1.3478    1.1727    1.0180 H   0  0  0  0  0  0  0  0  0  0  0  0
   -1.7892    4.1895   -0.5853 H   0  0  0  0  0  0  0  0  0  0  0  0
   -2.2299    2.5215   -0.2580 H   0  0  0  0  0  0  0  0  0  0  0  0
   -1.9140    2.9990   -2.7051 H   0  0  0  0  0  0  0  0  0  0  0  0
   -0.7850    1.7616   -2.1638 H   0  0  0  0  0  0  0  0  0  0  0  0
   -0.2252    3.4314   -2.4160 H   0  0  0  0  0  0  0  0  0  0  0  0
   -2.2085   -2.1934    3.6551 H   0  0  0  0  0  0  0  0  0  0  0  0
   -0.9380   -1.0108    3.7146 H   0  0  0  0  0  0  0  0  0  0  0  0
  1  2  1  0
  1  3  1  0
  3  4  1  0
  4  5  1  0
  5  6  1  0
  6  7  1  0
  1  8  1  0
  8  9  1  0
  8 10  2  0
  1 11  1  1
  2 12  1  0
  2 13  1  0
  3 14  1  0
  3 15  1  0
  4 16  1  0
  4 17  1  0
  6 18  1  0
  6 19  1  0
  7 20  1  0
  7 21  1  0
  7 22  1  0
  9 23  1  0
  9 24  1  0
M  END
