
     RDKit          3D

 28 28  0  0  0  0  0  0  0  0999 V2000
    1.9883   -2.8578   -3.3736 C   0  0  0  0  0  0  0  0  0  0  0  0
    1.7227   -1.5997   -2.6004 C   0  0  0  0  0  0  0  0  0  0  0  0
    1.9561   -1.5546   -1.2211 C   0  0  0  0  0  0  0  0  0  0  0  0
    1.7417   -0.3746   -0.5048 C   0  0  0  0  0  0  0  0  0  0  0  0
    1.2966    0.7761   -1.1605 C   0  0  0  0  0  0  0  0  0  0  0  0
    1.0841    0.7422   -2.5422 C   0  0  0  0  0  0  0  0  0  0  0  0
    1.2990   -0.4387   -3.2578 C   0  0  0  0  0  0  0  0  0  0  0  0
    1.0067    2.3128   -0.2517 S   0  0  0  0  0  4  0  0  0  0  0  0
    1.6615    2.1174    1.0831 O   0  0  0  0  0  0  0  0  0  0  0  0
   -0.7851    2.0834   -0.0048 C   0  0  0  0  0  0  0  0  0  0  0  0
   -1.4651    3.3296    0.5719 C   0  0  1  0  0  0  0  0  0  0  0  0
   -2.9438    3.1936    0.3598 N   0  0  0  0  0  0  0  0  0  0  0  0
   -1.0592    3.5961    2.0470 C   0  0  0  0  0  0  0  0  0  0  0  0
   -1.8990    4.5279    2.5766 F   0  0  0  0  0  0  0  0  0  0  0  0
   -1.1492    2.4930    2.8160 F   0  0  0  0  0  0  0  0  0  0  0  0
    0.1823    4.1076    2.1504 F   0  0  0  0  0  0  0  0  0  0  0  0
    1.8039   -3.7425   -2.7551 H   0  0  0  0  0  0  0  0  0  0  0  0
    1.3280   -2.9276   -4.2445 H   0  0  0  0  0  0  0  0  0  0  0  0
    3.0278   -2.8746   -3.7151 H   0  0  0  0  0  0  0  0  0  0  0  0
    2.3101   -2.4375   -0.6929 H   0  0  0  0  0  0  0  0  0  0  0  0
    1.9303   -0.3591    0.5670 H   0  0  0  0  0  0  0  0  0  0  0  0
    0.7585    1.6310   -3.0762 H   0  0  0  0  0  0  0  0  0  0  0  0
    1.1373   -0.4471   -4.3338 H   0  0  0  0  0  0  0  0  0  0  0  0
   -1.2086    1.8626   -0.9919 H   0  0  0  0  0  0  0  0  0  0  0  0
   -0.9445    1.2072    0.6336 H   0  0  0  0  0  0  0  0  0  0  0  0
   -1.1609    4.2138   -0.0024 H   0  0  0  0  0  0  0  0  0  0  0  0
   -3.4195    3.9219    0.9007 H   0  0  0  0  0  0  0  0  0  0  0  0
   -3.1713    3.3684   -0.6189 H   0  0  0  0  0  0  0  0  0  0  0  0
  1  2  1  0
  2  3  2  0
  3  4  1  0
  4  5  2  0
  5  6  1  0
  6  7  2  0
  5  8  1  0
  8  9  2  0
  8 10  1  1
 10 11  1  0
 11 12  1  0
 11 13  1  0
 13 14  1  0
 13 15  1  0
 13 16  1  0
  7  2  1  0
  1 17  1  0
  1 18  1  0
  1 19  1  0
  3 20  1  0
  4 21  1  0
  6 22  1  0
  7 23  1  0
 10 24  1  0
 10 25  1  0
 11 26  1  6
 12 27  1  0
 12 28  1  0
M  END
