
     RDKit          3D

 20 19  0  0  0  0  0  0  0  0999 V2000
    0.8006    0.4926   -0.8651 C   0  0  0  0  0  0  0  0  0  0  0  0
   -0.4238    0.1224    0.0018 C   0  0  0  0  0  0  0  0  0  0  0  0
   -1.3799   -0.7415   -0.8465 C   0  0  0  0  0  0  0  0  0  0  0  0
    0.0875   -0.7369    1.1804 C   0  0  0  0  0  0  0  0  0  0  0  0
   -1.1125    1.4203    0.5481 C   0  0  2  0  0  0  0  0  0  0  0  0
   -2.2335    1.1121    1.4617 N   0  0  0  0  0  0  0  0  0  0  0  0
   -1.5527    2.3310   -0.5436 C   0  0  0  0  0  0  0  0  0  0  0  0
   -1.9206    3.0450   -1.3822 N   0  0  0  0  0  0  0  0  0  0  0  0
    1.3455   -0.4042   -1.1825 H   0  0  0  0  0  0  0  0  0  0  0  0
    0.5096    1.0301   -1.7739 H   0  0  0  0  0  0  0  0  0  0  0  0
    1.5011    1.1250   -0.3081 H   0  0  0  0  0  0  0  0  0  0  0  0
   -2.2381   -1.0905   -0.2629 H   0  0  0  0  0  0  0  0  0  0  0  0
   -1.7619   -0.1910   -1.7125 H   0  0  0  0  0  0  0  0  0  0  0  0
   -0.8663   -1.6317   -1.2286 H   0  0  0  0  0  0  0  0  0  0  0  0
    0.7650   -0.1623    1.8221 H   0  0  0  0  0  0  0  0  0  0  0  0
    0.6372   -1.6144    0.8205 H   0  0  0  0  0  0  0  0  0  0  0  0
   -0.7353   -1.1047    1.8029 H   0  0  0  0  0  0  0  0  0  0  0  0
   -0.3707    1.9664    1.1460 H   0  0  0  0  0  0  0  0  0  0  0  0
   -2.6159    1.9874    1.8227 H   0  0  0  0  0  0  0  0  0  0  0  0
   -2.9922    0.6824    0.9315 H   0  0  0  0  0  0  0  0  0  0  0  0
  1  2  1  0
  2  3  1  0
  2  4  1  0
  2  5  1  0
  5  6  1  0
  5  7  1  0
  7  8  3  0
  1  9  1  0
  1 10  1  0
  1 11  1  0
  3 12  1  0
  3 13  1  0
  3 14  1  0
  4 15  1  0
  4 16  1  0
  4 17  1  0
  5 18  1  1
  6 19  1  0
  6 20  1  0
M  END
