
     RDKit          3D

 29 29  0  0  0  0  0  0  0  0999 V2000
    0.9090    2.9296    2.5634 C   0  0  0  0  0  0  0  0  0  0  0  0
    1.4152    2.7609    1.1356 C   0  0  0  0  0  0  0  0  0  0  0  0
    0.3276    2.2870    0.1504 C   0  0  1  0  0  0  0  0  0  0  0  0
   -0.7433    3.2874    0.0958 N   0  0  0  0  0  0  0  0  0  0  0  0
    0.9578    2.0262   -1.2215 C   0  0  0  0  0  0  0  0  0  0  0  0
   -0.0596    1.0608   -2.3152 S   0  0  0  0  0  6  0  0  0  0  0  0
   -1.3727    1.6777   -2.3805 O   0  0  0  0  0  0  0  0  0  0  0  0
    0.6985    0.8272   -3.5311 O   0  0  0  0  0  0  0  0  0  0  0  0
   -0.2293   -0.5124   -1.5079 C   0  0  0  0  0  0  0  0  0  0  0  0
    0.8272   -1.4262   -1.5669 C   0  0  0  0  0  0  0  0  0  0  0  0
    0.6971   -2.6642   -0.9383 C   0  0  0  0  0  0  0  0  0  0  0  0
   -0.4835   -2.9861   -0.2664 C   0  0  0  0  0  0  0  0  0  0  0  0
   -1.5417   -2.0763   -0.2272 C   0  0  0  0  0  0  0  0  0  0  0  0
   -1.4210   -0.8364   -0.8542 C   0  0  0  0  0  0  0  0  0  0  0  0
    1.7389    3.1955    3.2261 H   0  0  0  0  0  0  0  0  0  0  0  0
    0.1596    3.7237    2.6347 H   0  0  0  0  0  0  0  0  0  0  0  0
    0.4652    2.0000    2.9338 H   0  0  0  0  0  0  0  0  0  0  0  0
    2.2309    2.0270    1.1511 H   0  0  0  0  0  0  0  0  0  0  0  0
    1.8515    3.7084    0.7946 H   0  0  0  0  0  0  0  0  0  0  0  0
   -0.1017    1.3621    0.5481 H   0  0  0  0  0  0  0  0  0  0  0  0
   -1.4429    3.0194   -0.6072 H   0  0  0  0  0  0  0  0  0  0  0  0
   -0.3834    4.1918   -0.2103 H   0  0  0  0  0  0  0  0  0  0  0  0
    1.1775    2.9665   -1.7406 H   0  0  0  0  0  0  0  0  0  0  0  0
    1.9037    1.4810   -1.1244 H   0  0  0  0  0  0  0  0  0  0  0  0
    1.7418   -1.1904   -2.1065 H   0  0  0  0  0  0  0  0  0  0  0  0
    1.5109   -3.3845   -0.9795 H   0  0  0  0  0  0  0  0  0  0  0  0
   -0.5842   -3.9544    0.2188 H   0  0  0  0  0  0  0  0  0  0  0  0
   -2.4637   -2.3375    0.2872 H   0  0  0  0  0  0  0  0  0  0  0  0
   -2.2543   -0.1375   -0.8264 H   0  0  0  0  0  0  0  0  0  0  0  0
  1  2  1  0
  2  3  1  0
  3  4  1  0
  3  5  1  0
  5  6  1  0
  6  7  2  0
  6  8  2  0
  6  9  1  0
  9 10  2  0
 10 11  1  0
 11 12  2  0
 12 13  1  0
 13 14  2  0
 14  9  1  0
  1 15  1  0
  1 16  1  0
  1 17  1  0
  2 18  1  0
  2 19  1  0
  3 20  1  1
  4 21  1  0
  4 22  1  0
  5 23  1  0
  5 24  1  0
 10 25  1  0
 11 26  1  0
 12 27  1  0
 13 28  1  0
 14 29  1  0
M  END
