
     RDKit          3D

 26 25  0  0  0  0  0  0  0  0999 V2000
   -1.5616   -2.2621    2.8329 C   0  0  0  0  0  0  0  0  0  0  0  0
   -0.1224   -2.0301    2.4003 C   0  0  0  0  0  0  0  0  0  0  0  0
    0.0604   -1.9633    0.8833 C   0  0  0  0  0  0  0  0  0  0  0  0
   -0.7172   -0.8751    0.1273 C   0  0  0  0  0  0  0  0  0  0  0  0
   -0.2250    0.5693    0.3656 C   0  0  2  0  0  0  0  0  0  0  0  0
   -0.6365    1.0271    1.7004 N   0  0  0  0  0  0  0  0  0  0  0  0
   -0.7823    1.5460   -0.7023 C   0  0  0  0  0  0  0  0  0  0  0  0
   -0.2569    1.4500   -2.1136 C   0  0  0  0  0  0  0  0  0  0  0  0
    0.7981    0.7518   -2.5531 C   0  0  0  0  0  0  0  0  0  0  0  0
   -1.6089   -2.4037    3.9175 H   0  0  0  0  0  0  0  0  0  0  0  0
   -1.9749   -3.1572    2.3573 H   0  0  0  0  0  0  0  0  0  0  0  0
   -2.2015   -1.4113    2.5829 H   0  0  0  0  0  0  0  0  0  0  0  0
    0.4867   -2.8607    2.7785 H   0  0  0  0  0  0  0  0  0  0  0  0
    0.2706   -1.1287    2.8799 H   0  0  0  0  0  0  0  0  0  0  0  0
    1.1297   -1.8523    0.6642 H   0  0  0  0  0  0  0  0  0  0  0  0
   -0.2333   -2.9349    0.4646 H   0  0  0  0  0  0  0  0  0  0  0  0
   -0.6207   -1.1129   -0.9389 H   0  0  0  0  0  0  0  0  0  0  0  0
   -1.7901   -0.9541    0.3415 H   0  0  0  0  0  0  0  0  0  0  0  0
    0.8705    0.5902    0.3386 H   0  0  0  0  0  0  0  0  0  0  0  0
   -1.6539    1.0521    1.7581 H   0  0  0  0  0  0  0  0  0  0  0  0
   -0.3180    1.9841    1.8480 H   0  0  0  0  0  0  0  0  0  0  0  0
   -1.8741    1.4331   -0.7461 H   0  0  0  0  0  0  0  0  0  0  0  0
   -0.5957    2.5786   -0.3768 H   0  0  0  0  0  0  0  0  0  0  0  0
   -0.8096    2.0402   -2.8445 H   0  0  0  0  0  0  0  0  0  0  0  0
    1.0742    0.7761   -3.6037 H   0  0  0  0  0  0  0  0  0  0  0  0
    1.4174    0.1471   -1.8994 H   0  0  0  0  0  0  0  0  0  0  0  0
  1  2  1  0
  2  3  1  0
  3  4  1  0
  4  5  1  0
  5  6  1  0
  5  7  1  0
  7  8  1  0
  8  9  2  3
  1 10  1  0
  1 11  1  0
  1 12  1  0
  2 13  1  0
  2 14  1  0
  3 15  1  0
  3 16  1  0
  4 17  1  0
  4 18  1  0
  5 19  1  1
  6 20  1  0
  6 21  1  0
  7 22  1  0
  7 23  1  0
  8 24  1  0
  9 25  1  0
  9 26  1  0
M  END
