
     RDKit          3D

 29 29  0  0  0  0  0  0  0  0999 V2000
   -3.0877    1.5051    0.4247 C   0  0  0  0  0  0  0  0  0  0  0  0
   -2.9407    1.7718   -1.0647 C   0  0  0  0  0  0  0  0  0  0  0  0
   -2.1674    0.7203   -1.8853 C   0  0  2  0  0  0  0  0  0  0  0  0
   -2.8797   -0.5559   -1.9566 N   0  0  0  0  0  0  0  0  0  0  0  0
   -0.6899    0.5502   -1.4776 C   0  0  0  0  0  0  0  0  0  0  0  0
   -0.4015   -0.4567   -0.3574 C   0  0  0  0  0  0  0  0  0  0  0  0
    1.0490   -0.4142    0.0627 C   0  0  0  0  0  0  0  0  0  0  0  0
    2.0065   -1.1825   -0.6127 C   0  0  0  0  0  0  0  0  0  0  0  0
    3.3491   -1.1302   -0.2353 C   0  0  0  0  0  0  0  0  0  0  0  0
    3.7471   -0.3069    0.8165 C   0  0  0  0  0  0  0  0  0  0  0  0
    2.8035    0.4663    1.4905 C   0  0  0  0  0  0  0  0  0  0  0  0
    1.4602    0.4154    1.1145 C   0  0  0  0  0  0  0  0  0  0  0  0
   -2.1271    1.5943    0.9391 H   0  0  0  0  0  0  0  0  0  0  0  0
   -3.7587    2.2481    0.8690 H   0  0  0  0  0  0  0  0  0  0  0  0
   -3.5095    0.5164    0.6247 H   0  0  0  0  0  0  0  0  0  0  0  0
   -2.4548    2.7475   -1.1938 H   0  0  0  0  0  0  0  0  0  0  0  0
   -3.9458    1.8809   -1.4934 H   0  0  0  0  0  0  0  0  0  0  0  0
   -2.1486    1.1124   -2.9114 H   0  0  0  0  0  0  0  0  0  0  0  0
   -3.0099   -0.9422   -1.0229 H   0  0  0  0  0  0  0  0  0  0  0  0
   -3.8190   -0.4005   -2.3226 H   0  0  0  0  0  0  0  0  0  0  0  0
   -0.1303    0.2263   -2.3669 H   0  0  0  0  0  0  0  0  0  0  0  0
   -0.2794    1.5339   -1.2139 H   0  0  0  0  0  0  0  0  0  0  0  0
   -0.6403   -1.4748   -0.6897 H   0  0  0  0  0  0  0  0  0  0  0  0
   -1.0289   -0.2773    0.5202 H   0  0  0  0  0  0  0  0  0  0  0  0
    1.7094   -1.8254   -1.4384 H   0  0  0  0  0  0  0  0  0  0  0  0
    4.0844   -1.7311   -0.7637 H   0  0  0  0  0  0  0  0  0  0  0  0
    4.7927   -0.2665    1.1093 H   0  0  0  0  0  0  0  0  0  0  0  0
    3.1139    1.1106    2.3086 H   0  0  0  0  0  0  0  0  0  0  0  0
    0.7358    1.0275    1.6464 H   0  0  0  0  0  0  0  0  0  0  0  0
  1  2  1  0
  2  3  1  0
  3  4  1  0
  3  5  1  0
  5  6  1  0
  6  7  1  0
  7  8  2  0
  8  9  1  0
  9 10  2  0
 10 11  1  0
 11 12  2  0
 12  7  1  0
  1 13  1  0
  1 14  1  0
  1 15  1  0
  2 16  1  0
  2 17  1  0
  3 18  1  6
  4 19  1  0
  4 20  1  0
  5 21  1  0
  5 22  1  0
  6 23  1  0
  6 24  1  0
  8 25  1  0
  9 26  1  0
 10 27  1  0
 11 28  1  0
 12 29  1  0
M  END
