
     RDKit          3D

 30 30  0  0  0  0  0  0  0  0999 V2000
    0.2621    3.8943    1.3281 N   0  0  0  0  0  0  0  0  0  0  0  0
    0.2800    3.2386    0.0117 C   0  0  2  0  0  0  0  0  0  0  0  0
   -0.8782    2.2236   -0.1041 C   0  0  0  0  0  0  0  0  0  0  0  0
   -0.9816    1.1481    0.9898 C   0  0  0  0  0  0  0  0  0  0  0  0
   -0.1161   -0.0726    0.7993 C   0  0  0  0  0  0  0  0  0  0  0  0
    0.9008   -0.3721    1.7158 C   0  0  0  0  0  0  0  0  0  0  0  0
    1.6846   -1.5165    1.5579 C   0  0  0  0  0  0  0  0  0  0  0  0
    1.4542   -2.3784    0.4876 C   0  0  0  0  0  0  0  0  0  0  0  0
    0.4398   -2.0967   -0.4251 C   0  0  0  0  0  0  0  0  0  0  0  0
   -0.3426   -0.9508   -0.2696 C   0  0  0  0  0  0  0  0  0  0  0  0
    1.6860    2.6788   -0.2900 C   0  0  0  0  0  0  0  0  0  0  0  0
    1.8516    2.2234   -1.7157 C   0  0  0  0  0  0  0  0  0  0  0  0
    2.2599    0.9988   -2.0697 C   0  0  0  0  0  0  0  0  0  0  0  0
   -0.6313    4.3669    1.4604 H   0  0  0  0  0  0  0  0  0  0  0  0
    0.9762    4.6216    1.3564 H   0  0  0  0  0  0  0  0  0  0  0  0
    0.0802    4.0265   -0.7278 H   0  0  0  0  0  0  0  0  0  0  0  0
   -0.8712    1.7632   -1.0991 H   0  0  0  0  0  0  0  0  0  0  0  0
   -1.8114    2.8039   -0.0606 H   0  0  0  0  0  0  0  0  0  0  0  0
   -2.0209    0.7915    1.0169 H   0  0  0  0  0  0  0  0  0  0  0  0
   -0.8102    1.5849    1.9805 H   0  0  0  0  0  0  0  0  0  0  0  0
    1.0913    0.2909    2.5572 H   0  0  0  0  0  0  0  0  0  0  0  0
    2.4733   -1.7351    2.2727 H   0  0  0  0  0  0  0  0  0  0  0  0
    2.0630   -3.2702    0.3667 H   0  0  0  0  0  0  0  0  0  0  0  0
    0.2557   -2.7695   -1.2583 H   0  0  0  0  0  0  0  0  0  0  0  0
   -1.1345   -0.7483   -0.9868 H   0  0  0  0  0  0  0  0  0  0  0  0
    1.9491    1.8839    0.4139 H   0  0  0  0  0  0  0  0  0  0  0  0
    2.4255    3.4753   -0.1290 H   0  0  0  0  0  0  0  0  0  0  0  0
    1.6418    2.9531   -2.4946 H   0  0  0  0  0  0  0  0  0  0  0  0
    2.4894    0.2404   -1.3265 H   0  0  0  0  0  0  0  0  0  0  0  0
    2.3702    0.7256   -3.1140 H   0  0  0  0  0  0  0  0  0  0  0  0
  1  2  1  0
  2  3  1  0
  3  4  1  0
  4  5  1  0
  5  6  2  0
  6  7  1  0
  7  8  2  0
  8  9  1  0
  9 10  2  0
  2 11  1  0
 11 12  1  0
 12 13  2  3
 10  5  1  0
  1 14  1  0
  1 15  1  0
  2 16  1  6
  3 17  1  0
  3 18  1  0
  4 19  1  0
  4 20  1  0
  6 21  1  0
  7 22  1  0
  8 23  1  0
  9 24  1  0
 10 25  1  0
 11 26  1  0
 11 27  1  0
 12 28  1  0
 13 29  1  0
 13 30  1  0
M  END
