
     RDKit          3D

 20 19  0  0  0  0  0  0  0  0999 V2000
    1.1818   -0.5093    1.7205 C   0  0  0  0  0  0  0  0  0  0  0  0
   -0.1064   -1.0258    1.1018 C   0  0  0  0  0  0  0  0  0  0  0  0
   -1.0137    0.0552    0.4968 C   0  0  0  0  0  0  0  0  0  0  0  0
   -0.4998    0.8401   -0.7272 C   0  0  1  0  0  0  0  0  0  0  0  0
    0.5948    1.7403   -0.3805 N   0  0  0  0  0  0  0  0  0  0  0  0
   -0.0479   -0.0510   -1.8475 C   0  0  0  0  0  0  0  0  0  0  0  0
   -0.6782   -0.1740   -3.0238 C   0  0  0  0  0  0  0  0  0  0  0  0
    0.9866    0.3154    2.4128 H   0  0  0  0  0  0  0  0  0  0  0  0
    1.8874   -0.1710    0.9571 H   0  0  0  0  0  0  0  0  0  0  0  0
    1.6733   -1.3109    2.2817 H   0  0  0  0  0  0  0  0  0  0  0  0
   -0.6773   -1.5341    1.8893 H   0  0  0  0  0  0  0  0  0  0  0  0
    0.1272   -1.7932    0.3557 H   0  0  0  0  0  0  0  0  0  0  0  0
   -1.9523   -0.4372    0.2062 H   0  0  0  0  0  0  0  0  0  0  0  0
   -1.2892    0.7660    1.2878 H   0  0  0  0  0  0  0  0  0  0  0  0
   -1.3311    1.4674   -1.0755 H   0  0  0  0  0  0  0  0  0  0  0  0
    0.8115    2.3185   -1.1914 H   0  0  0  0  0  0  0  0  0  0  0  0
    0.2861    2.3797    0.3491 H   0  0  0  0  0  0  0  0  0  0  0  0
    0.8621   -0.6248   -1.6815 H   0  0  0  0  0  0  0  0  0  0  0  0
   -1.5864    0.3764   -3.2470 H   0  0  0  0  0  0  0  0  0  0  0  0
   -0.2895   -0.8355   -3.7919 H   0  0  0  0  0  0  0  0  0  0  0  0
  1  2  1  0
  2  3  1  0
  3  4  1  0
  4  5  1  0
  4  6  1  0
  6  7  2  3
  1  8  1  0
  1  9  1  0
  1 10  1  0
  2 11  1  0
  2 12  1  0
  3 13  1  0
  3 14  1  0
  4 15  1  6
  5 16  1  0
  5 17  1  0
  6 18  1  0
  7 19  1  0
  7 20  1  0
M  END
