
     RDKit          3D

 15 14  0  0  0  0  0  0  0  0999 V2000
    1.0622   -0.3019   -0.7853 N   0  0  0  0  0  0  0  0  0  0  0  0
   -0.1925    0.3221   -1.2318 C   0  0  0  0  0  0  0  0  0  0  0  0
   -0.3832    1.7606   -0.6863 C   0  0  2  0  0  0  0  0  0  0  0  0
    0.9114    2.5043   -0.8031 N   0  0  0  0  0  0  0  0  0  0  0  0
   -0.9907    1.6967    0.7360 C   0  0  0  0  0  0  0  0  0  0  0  0
   -0.1890    1.0249    1.5958 F   0  0  0  0  0  0  0  0  0  0  0  0
   -1.2100    2.9279    1.2484 F   0  0  0  0  0  0  0  0  0  0  0  0
   -2.1853    1.0558    0.7160 F   0  0  0  0  0  0  0  0  0  0  0  0
    1.0327   -0.4470    0.2274 H   0  0  0  0  0  0  0  0  0  0  0  0
    1.1362   -1.2354   -1.1926 H   0  0  0  0  0  0  0  0  0  0  0  0
   -1.0399   -0.3187   -0.9652 H   0  0  0  0  0  0  0  0  0  0  0  0
   -0.1586    0.3680   -2.3270 H   0  0  0  0  0  0  0  0  0  0  0  0
   -1.1097    2.2784   -1.3237 H   0  0  0  0  0  0  0  0  0  0  0  0
    1.2029    2.4758   -1.7815 H   0  0  0  0  0  0  0  0  0  0  0  0
    1.6155    1.9144   -0.3419 H   0  0  0  0  0  0  0  0  0  0  0  0
  1  2  1  0
  2  3  1  0
  3  4  1  0
  3  5  1  0
  5  6  1  0
  5  7  1  0
  5  8  1  0
  1  9  1  0
  1 10  1  0
  2 11  1  0
  2 12  1  0
  3 13  1  6
  4 14  1  0
  4 15  1  0
M  END
