
     RDKit          3D

 34 35  0  0  0  0  0  0  0  0999 V2000
   -1.7347    2.4067    2.0276 N   0  0  0  0  0  0  0  0  0  0  0  0
   -0.7504    1.2533    1.9456 C   0  0  2  0  0  0  0  0  0  0  0  0
    0.1747    1.5687    0.8273 C   0  0  0  0  0  0  0  0  0  0  0  0
    1.7375    0.2242    0.4560 Te  0  0  0  0  0  2  0  0  0  0  0  0
    1.8264   -0.4394   -1.5383 C   0  0  0  0  0  0  0  0  0  0  0  0
    2.9395   -1.1762   -1.9046 C   0  0  0  0  0  0  0  0  0  0  0  0
    3.1232   -1.6698   -3.1738 C   0  0  0  0  0  0  0  0  0  0  0  0
    2.1531   -1.4169   -4.1196 C   0  0  0  0  0  0  0  0  0  0  0  0
    1.0426   -0.6812   -3.7523 C   0  0  0  0  0  0  0  0  0  0  0  0
    0.8771   -0.1952   -2.4745 C   0  0  0  0  0  0  0  0  0  0  0  0
   -1.5958    0.0418    1.8607 C   0  0  0  0  0  0  0  0  0  0  0  0
   -0.8510   -1.2168    1.7742 C   0  0  0  0  0  0  0  0  0  0  0  0
   -0.5956   -1.8957    0.5962 C   0  0  0  0  0  0  0  0  0  0  0  0
    0.1014   -3.0990    0.5811 C   0  0  0  0  0  0  0  0  0  0  0  0
    0.5725   -3.6750    1.7333 C   0  0  0  0  0  0  0  0  0  0  0  0
    0.3308   -3.0183    2.9113 C   0  0  0  0  0  0  0  0  0  0  0  0
   -0.3551   -1.8341    2.9298 C   0  0  0  0  0  0  0  0  0  0  0  0
   -2.1662    2.2712    2.9681 H   0  0  0  0  0  0  0  0  0  0  0  0
   -2.4272    2.2507    1.2604 H   0  0  0  0  0  0  0  0  0  0  0  0
   -0.2029    1.3438    2.9047 H   0  0  0  0  0  0  0  0  0  0  0  0
   -0.4009    1.8556   -0.1033 H   0  0  0  0  0  0  0  0  0  0  0  0
    0.6534    2.5620    1.1122 H   0  0  0  0  0  0  0  0  0  0  0  0
    3.7263   -1.3959   -1.1852 H   0  0  0  0  0  0  0  0  0  0  0  0
    3.9971   -2.2439   -3.4472 H   0  0  0  0  0  0  0  0  0  0  0  0
    2.2551   -1.7887   -5.1418 H   0  0  0  0  0  0  0  0  0  0  0  0
    0.2776   -0.4861   -4.5119 H   0  0  0  0  0  0  0  0  0  0  0  0
    0.0069    0.3842   -2.1770 H   0  0  0  0  0  0  0  0  0  0  0  0
   -2.3728    0.1122    1.0544 H   0  0  0  0  0  0  0  0  0  0  0  0
   -2.2097   -0.0318    2.8148 H   0  0  0  0  0  0  0  0  0  0  0  0
   -0.9543   -1.4744   -0.3340 H   0  0  0  0  0  0  0  0  0  0  0  0
    0.2840   -3.6080   -0.3731 H   0  0  0  0  0  0  0  0  0  0  0  0
    1.1144   -4.6186    1.6819 H   0  0  0  0  0  0  0  0  0  0  0  0
    0.6871   -3.4441    3.8276 H   0  0  0  0  0  0  0  0  0  0  0  0
   -0.5578   -1.2941    3.8649 H   0  0  0  0  0  0  0  0  0  0  0  0
  1  2  1  0
  2  3  1  0
  3  4  1  0
  4  5  1  0
  5  6  2  0
  6  7  1  0
  7  8  2  0
  8  9  1  0
  9 10  2  0
  2 11  1  0
 11 12  1  0
 12 13  2  0
 13 14  1  0
 14 15  2  0
 15 16  1  0
 16 17  2  0
 10  5  1  0
 17 12  1  0
  1 18  1  0
  1 19  1  0
  2 20  1  1
  3 21  1  0
  3 22  1  0
  6 23  1  0
  7 24  1  0
  8 25  1  0
  9 26  1  0
 10 27  1  0
 11 28  1  0
 11 29  1  0
 13 30  1  0
 14 31  1  0
 15 32  1  0
 16 33  1  0
 17 34  1  0
M  END
