
     RDKit          3D

 23 23  0  0  0  0  0  0  0  0999 V2000
    2.1155    0.5068   -1.1856 C   0  0  0  0  0  0  0  0  0  0  0  0
    0.8505    1.3603   -1.0766 C   0  0  2  0  0  0  0  0  0  0  0  0
    1.0581    2.6233   -1.7990 N   0  0  0  0  0  0  0  0  0  0  0  0
    0.4687    1.6621    0.3879 C   0  0  0  0  0  0  0  0  0  0  0  0
    0.0534    0.4396    1.1739 C   0  0  0  0  0  0  0  0  0  0  0  0
    0.8982   -0.1022    2.1548 C   0  0  0  0  0  0  0  0  0  0  0  0
    0.5159   -1.2367    2.8763 C   0  0  0  0  0  0  0  0  0  0  0  0
   -0.7149   -1.8394    2.6248 C   0  0  0  0  0  0  0  0  0  0  0  0
   -1.5533   -1.3024    1.6556 C   0  0  0  0  0  0  0  0  0  0  0  0
   -2.7371   -1.8813    1.4143 F   0  0  0  0  0  0  0  0  0  0  0  0
   -1.1832   -0.1736    0.9313 C   0  0  0  0  0  0  0  0  0  0  0  0
    2.9654    0.9823   -0.6833 H   0  0  0  0  0  0  0  0  0  0  0  0
    2.3906    0.3461   -2.2343 H   0  0  0  0  0  0  0  0  0  0  0  0
    1.9660   -0.4807   -0.7375 H   0  0  0  0  0  0  0  0  0  0  0  0
    0.0273    0.8293   -1.5689 H   0  0  0  0  0  0  0  0  0  0  0  0
    1.2998    2.4230   -2.7695 H   0  0  0  0  0  0  0  0  0  0  0  0
    1.8603    3.1171   -1.4083 H   0  0  0  0  0  0  0  0  0  0  0  0
   -0.3676    2.3746    0.4150 H   0  0  0  0  0  0  0  0  0  0  0  0
    1.3011    2.1656    0.8979 H   0  0  0  0  0  0  0  0  0  0  0  0
    1.8629    0.3565    2.3634 H   0  0  0  0  0  0  0  0  0  0  0  0
    1.1781   -1.6480    3.6338 H   0  0  0  0  0  0  0  0  0  0  0  0
   -1.0263   -2.7201    3.1768 H   0  0  0  0  0  0  0  0  0  0  0  0
   -1.8667    0.2198    0.1842 H   0  0  0  0  0  0  0  0  0  0  0  0
  1  2  1  0
  2  3  1  0
  2  4  1  0
  4  5  1  0
  5  6  2  0
  6  7  1  0
  7  8  2  0
  8  9  1  0
  9 10  1  0
  9 11  2  0
 11  5  1  0
  1 12  1  0
  1 13  1  0
  1 14  1  0
  2 15  1  6
  3 16  1  0
  3 17  1  0
  4 18  1  0
  4 19  1  0
  6 20  1  0
  7 21  1  0
  8 22  1  0
 11 23  1  0
M  END
