
     RDKit          3D

 20 19  0  0  0  0  0  0  0  0999 V2000
   -0.9745   -0.5601    1.6306 C   0  0  0  0  0  0  0  0  0  0  0  0
    0.0818   -0.9347    0.5907 C   0  0  2  0  0  0  0  0  0  0  0  0
    1.3180   -1.3541    1.2632 N   0  0  0  0  0  0  0  0  0  0  0  0
    0.3531    0.2453   -0.3167 C   0  0  0  0  0  0  0  0  0  0  0  0
    0.9533    1.3129    0.2735 F   0  0  0  0  0  0  0  0  0  0  0  0
    0.0661    0.3565   -1.6304 C   0  0  0  0  0  0  0  0  0  0  0  0
   -0.6094   -0.6941   -2.4670 C   0  0  0  0  0  0  0  0  0  0  0  0
    0.4229    1.6044   -2.3964 C   0  0  0  0  0  0  0  0  0  0  0  0
   -1.9117   -0.2656    1.1448 H   0  0  0  0  0  0  0  0  0  0  0  0
   -1.1965   -1.4092    2.2870 H   0  0  0  0  0  0  0  0  0  0  0  0
   -0.6475    0.2749    2.2616 H   0  0  0  0  0  0  0  0  0  0  0  0
   -0.2813   -1.7994    0.0311 H   0  0  0  0  0  0  0  0  0  0  0  0
    1.7129   -0.5459    1.7455 H   0  0  0  0  0  0  0  0  0  0  0  0
    1.0967   -2.0326    1.9890 H   0  0  0  0  0  0  0  0  0  0  0  0
    0.0779   -1.0597   -3.2370 H   0  0  0  0  0  0  0  0  0  0  0  0
   -0.9582   -1.5567   -1.8968 H   0  0  0  0  0  0  0  0  0  0  0  0
   -1.4875   -0.2687   -2.9651 H   0  0  0  0  0  0  0  0  0  0  0  0
   -0.4810    2.0679   -2.8057 H   0  0  0  0  0  0  0  0  0  0  0  0
    1.0930    1.3584   -3.2270 H   0  0  0  0  0  0  0  0  0  0  0  0
    0.9269    2.3545   -1.7791 H   0  0  0  0  0  0  0  0  0  0  0  0
  1  2  1  0
  2  3  1  0
  2  4  1  0
  4  5  1  0
  4  6  2  3
  6  7  1  0
  6  8  1  0
  1  9  1  0
  1 10  1  0
  1 11  1  0
  2 12  1  6
  3 13  1  0
  3 14  1  0
  7 15  1  0
  7 16  1  0
  7 17  1  0
  8 18  1  0
  8 19  1  0
  8 20  1  0
M  END
