
     RDKit          3D

 27 27  0  0  0  0  0  0  0  0999 V2000
   -1.7403    2.6296    2.1449 N   0  0  0  0  0  0  0  0  0  0  0  0
   -1.0522    1.6769    3.0684 C   0  0  1  0  0  0  0  0  0  0  0  0
   -1.1940    0.2312    2.5422 C   0  0  0  0  0  0  0  0  0  0  0  0
   -0.5107   -0.0485    1.2278 C   0  0  0  0  0  0  0  0  0  0  0  0
   -1.1725   -0.2474    0.0764 C   0  0  0  0  0  0  0  0  0  0  0  0
   -0.5266   -0.5332   -1.2127 C   0  0  0  0  0  0  0  0  0  0  0  0
   -1.1860   -1.3627   -2.1294 C   0  0  0  0  0  0  0  0  0  0  0  0
   -0.6213   -1.6365   -3.3780 C   0  0  0  0  0  0  0  0  0  0  0  0
    0.6041   -1.0741   -3.7277 C   0  0  0  0  0  0  0  0  0  0  0  0
    1.2626   -0.2346   -2.8319 C   0  0  0  0  0  0  0  0  0  0  0  0
    0.6980    0.0389   -1.5830 C   0  0  0  0  0  0  0  0  0  0  0  0
    0.4192    2.0184    3.4133 C   0  0  0  0  0  0  0  0  0  0  0  0
    1.2110    2.0363    2.3185 F   0  0  0  0  0  0  0  0  0  0  0  0
    0.9408    1.1362    4.2929 F   0  0  0  0  0  0  0  0  0  0  0  0
    0.4935    3.2483    3.9787 F   0  0  0  0  0  0  0  0  0  0  0  0
   -1.5468    3.5843    2.4558 H   0  0  0  0  0  0  0  0  0  0  0  0
   -1.3079    2.5548    1.2201 H   0  0  0  0  0  0  0  0  0  0  0  0
   -1.6088    1.7278    4.0126 H   0  0  0  0  0  0  0  0  0  0  0  0
   -0.7907   -0.4663    3.2874 H   0  0  0  0  0  0  0  0  0  0  0  0
   -2.2627   -0.0110    2.4639 H   0  0  0  0  0  0  0  0  0  0  0  0
    0.5751   -0.1182    1.2520 H   0  0  0  0  0  0  0  0  0  0  0  0
   -2.2602   -0.2119    0.0619 H   0  0  0  0  0  0  0  0  0  0  0  0
   -2.1437   -1.8116   -1.8759 H   0  0  0  0  0  0  0  0  0  0  0  0
   -1.1399   -2.2880   -4.0764 H   0  0  0  0  0  0  0  0  0  0  0  0
    1.0433   -1.2860   -4.6989 H   0  0  0  0  0  0  0  0  0  0  0  0
    2.2146    0.2128   -3.1055 H   0  0  0  0  0  0  0  0  0  0  0  0
    1.2231    0.7115   -0.9095 H   0  0  0  0  0  0  0  0  0  0  0  0
  1  2  1  0
  2  3  1  0
  3  4  1  0
  4  5  2  0
  5  6  1  0
  6  7  2  0
  7  8  1  0
  8  9  2  0
  9 10  1  0
 10 11  2  0
  2 12  1  0
 12 13  1  0
 12 14  1  0
 12 15  1  0
 11  6  1  0
  1 16  1  0
  1 17  1  0
  2 18  1  1
  3 19  1  0
  3 20  1  0
  4 21  1  0
  5 22  1  0
  7 23  1  0
  8 24  1  0
  9 25  1  0
 10 26  1  0
 11 27  1  0
M  END
