
     RDKit          3D

 28 27  0  0  0  0  0  0  0  0999 V2000
   -1.6269   -0.6260    0.9196 C   0  0  1  0  0  0  0  0  0  0  0  0
   -1.8754    0.3168    2.0172 N   0  0  0  0  0  0  0  0  0  0  0  0
   -0.1813   -1.1537    1.0327 C   0  0  0  0  0  0  0  0  0  0  0  0
    0.9105   -0.1711    0.5865 C   0  0  0  0  0  0  0  0  0  0  0  0
    1.1252    1.0158    1.5110 C   0  0  0  0  0  0  0  0  0  0  0  0
   -2.6639   -1.7665    1.0032 C   0  0  0  0  0  0  0  0  0  0  0  0
   -3.1520   -2.3188   -0.3458 C   0  0  0  0  0  0  0  0  0  0  0  0
   -2.1362   -3.1219   -1.1586 C   0  0  0  0  0  0  0  0  0  0  0  0
   -1.4113   -2.2912   -2.2069 C   0  0  0  0  0  0  0  0  0  0  0  0
   -1.7532   -0.0800   -0.0216 H   0  0  0  0  0  0  0  0  0  0  0  0
   -2.8252    0.6804    1.9505 H   0  0  0  0  0  0  0  0  0  0  0  0
   -1.8201   -0.1710    2.9107 H   0  0  0  0  0  0  0  0  0  0  0  0
   -0.0726   -2.0483    0.4117 H   0  0  0  0  0  0  0  0  0  0  0  0
    0.0240   -1.4868    2.0590 H   0  0  0  0  0  0  0  0  0  0  0  0
    0.6979    0.1887   -0.4268 H   0  0  0  0  0  0  0  0  0  0  0  0
    1.8554   -0.7257    0.5272 H   0  0  0  0  0  0  0  0  0  0  0  0
    0.2949    1.7248    1.4558 H   0  0  0  0  0  0  0  0  0  0  0  0
    2.0310    1.5571    1.2181 H   0  0  0  0  0  0  0  0  0  0  0  0
    1.2467    0.6931    2.5496 H   0  0  0  0  0  0  0  0  0  0  0  0
   -2.2861   -2.5857    1.6284 H   0  0  0  0  0  0  0  0  0  0  0  0
   -3.5669   -1.4002    1.5120 H   0  0  0  0  0  0  0  0  0  0  0  0
   -3.9891   -2.9928   -0.1187 H   0  0  0  0  0  0  0  0  0  0  0  0
   -3.5767   -1.5074   -0.9492 H   0  0  0  0  0  0  0  0  0  0  0  0
   -2.6753   -3.9152   -1.6920 H   0  0  0  0  0  0  0  0  0  0  0  0
   -1.4202   -3.6281   -0.5030 H   0  0  0  0  0  0  0  0  0  0  0  0
   -2.1215   -1.8596   -2.9199 H   0  0  0  0  0  0  0  0  0  0  0  0
   -0.8397   -1.4739   -1.7635 H   0  0  0  0  0  0  0  0  0  0  0  0
   -0.7147   -2.9215   -2.7690 H   0  0  0  0  0  0  0  0  0  0  0  0
  1  2  1  0
  1  3  1  0
  3  4  1  0
  4  5  1  0
  1  6  1  0
  6  7  1  0
  7  8  1  0
  8  9  1  0
  1 10  1  6
  2 11  1  0
  2 12  1  0
  3 13  1  0
  3 14  1  0
  4 15  1  0
  4 16  1  0
  5 17  1  0
  5 18  1  0
  5 19  1  0
  6 20  1  0
  6 21  1  0
  7 22  1  0
  7 23  1  0
  8 24  1  0
  8 25  1  0
  9 26  1  0
  9 27  1  0
  9 28  1  0
M  END
