
     RDKit          3D

 18 17  0  0  0  0  0  0  0  0999 V2000
   -1.8415    2.0715   -0.3433 C   0  0  1  0  0  0  0  0  0  0  0  0
   -2.3260    0.9809    0.5318 N   0  0  0  0  0  0  0  0  0  0  0  0
   -1.2500    3.2546    0.4466 C   0  0  0  0  0  0  0  0  0  0  0  0
   -0.0896    2.8359    1.8111 S   0  0  0  0  0  0  0  0  0  0  0  0
    1.3685    2.3396    0.8617 C   0  0  0  0  0  0  0  0  0  0  0  0
   -0.8610    1.5174   -1.3943 C   0  0  0  0  0  0  0  0  0  0  0  0
   -0.4863    2.3810   -2.3845 N   0  0  0  0  0  0  0  0  0  0  0  0
   -0.4367    0.3644   -1.3924 O   0  0  0  0  0  0  0  0  0  0  0  0
   -2.7083    2.4346   -0.9101 H   0  0  0  0  0  0  0  0  0  0  0  0
   -2.3341    0.1171   -0.0190 H   0  0  0  0  0  0  0  0  0  0  0  0
   -1.6052    0.8147    1.2409 H   0  0  0  0  0  0  0  0  0  0  0  0
   -0.7567    3.9756   -0.2135 H   0  0  0  0  0  0  0  0  0  0  0  0
   -2.0776    3.7896    0.9273 H   0  0  0  0  0  0  0  0  0  0  0  0
    2.2327    2.3146    1.5314 H   0  0  0  0  0  0  0  0  0  0  0  0
    1.2368    1.3380    0.4492 H   0  0  0  0  0  0  0  0  0  0  0  0
    1.5760    3.0544    0.0615 H   0  0  0  0  0  0  0  0  0  0  0  0
    0.0587    1.9698   -3.1337 H   0  0  0  0  0  0  0  0  0  0  0  0
   -1.0596    3.1782   -2.6271 H   0  0  0  0  0  0  0  0  0  0  0  0
  1  2  1  0
  1  3  1  0
  3  4  1  0
  4  5  1  0
  1  6  1  0
  6  7  1  0
  6  8  2  0
  1  9  1  6
  2 10  1  0
  2 11  1  0
  3 12  1  0
  3 13  1  0
  5 14  1  0
  5 15  1  0
  5 16  1  0
  7 17  1  0
  7 18  1  0
M  END
