
     RDKit          3D

 28 28  0  0  0  0  0  0  0  0999 V2000
   -1.4278    1.7647   -0.9978 C   0  0  1  0  0  0  0  0  0  0  0  0
   -2.7456    1.8536   -0.3164 N   0  0  0  0  0  0  0  0  0  0  0  0
   -0.7559    0.4221   -0.6678 C   0  0  0  0  0  0  0  0  0  0  0  0
    1.0153    0.3795   -1.1476 S   0  0  0  0  0  0  0  0  0  0  0  0
    1.3834   -1.3653   -0.7695 C   0  0  0  0  0  0  0  0  0  0  0  0
    1.3202   -1.6902    0.7002 C   0  0  0  0  0  0  0  0  0  0  0  0
    0.2901   -2.4950    1.2090 C   0  0  0  0  0  0  0  0  0  0  0  0
    0.2318   -2.7954    2.5711 C   0  0  0  0  0  0  0  0  0  0  0  0
    1.2019   -2.2974    3.4384 C   0  0  0  0  0  0  0  0  0  0  0  0
    2.2318   -1.4990    2.9457 C   0  0  0  0  0  0  0  0  0  0  0  0
    2.2920   -1.1972    1.5843 C   0  0  0  0  0  0  0  0  0  0  0  0
   -1.6551    1.9183   -2.5177 C   0  0  0  0  0  0  0  0  0  0  0  0
   -0.5658    2.2834   -3.2530 N   0  0  0  0  0  0  0  0  0  0  0  0
   -2.7451    1.7460   -3.0591 O   0  0  0  0  0  0  0  0  0  0  0  0
   -0.8188    2.6039   -0.6419 H   0  0  0  0  0  0  0  0  0  0  0  0
   -3.1419    2.7715   -0.5315 H   0  0  0  0  0  0  0  0  0  0  0  0
   -3.3803    1.2096   -0.8000 H   0  0  0  0  0  0  0  0  0  0  0  0
   -1.2734   -0.3976   -1.1789 H   0  0  0  0  0  0  0  0  0  0  0  0
   -0.8087    0.2475    0.4120 H   0  0  0  0  0  0  0  0  0  0  0  0
    0.7033   -2.0027   -1.3457 H   0  0  0  0  0  0  0  0  0  0  0  0
    2.3923   -1.5864   -1.1366 H   0  0  0  0  0  0  0  0  0  0  0  0
   -0.4781   -2.8920    0.5491 H   0  0  0  0  0  0  0  0  0  0  0  0
   -0.5725   -3.4168    2.9565 H   0  0  0  0  0  0  0  0  0  0  0  0
    1.1544   -2.5301    4.4990 H   0  0  0  0  0  0  0  0  0  0  0  0
    2.9876   -1.1082    3.6220 H   0  0  0  0  0  0  0  0  0  0  0  0
    3.1003   -0.5689    1.2156 H   0  0  0  0  0  0  0  0  0  0  0  0
    0.3646    2.0937   -2.8935 H   0  0  0  0  0  0  0  0  0  0  0  0
   -0.6816    2.2764   -4.2582 H   0  0  0  0  0  0  0  0  0  0  0  0
  1  2  1  0
  1  3  1  0
  3  4  1  0
  4  5  1  0
  5  6  1  0
  6  7  2  0
  7  8  1  0
  8  9  2  0
  9 10  1  0
 10 11  2  0
  1 12  1  0
 12 13  1  0
 12 14  2  0
 11  6  1  0
  1 15  1  1
  2 16  1  0
  2 17  1  0
  3 18  1  0
  3 19  1  0
  5 20  1  0
  5 21  1  0
  7 22  1  0
  8 23  1  0
  9 24  1  0
 10 25  1  0
 11 26  1  0
 13 27  1  0
 13 28  1  0
M  END
