
     RDKit          3D

 21 20  0  0  0  0  0  0  0  0999 V2000
    0.4279    0.8927   -0.8673 C   0  0  2  0  0  0  0  0  0  0  0  0
    1.3766    1.9869   -1.1969 N   0  0  0  0  0  0  0  0  0  0  0  0
   -0.0232    1.0305    0.5899 C   0  0  0  0  0  0  0  0  0  0  0  0
   -1.0783   -0.0115    0.9679 C   0  0  0  0  0  0  0  0  0  0  0  0
   -1.6209    0.2107    2.3625 C   0  0  0  0  0  0  0  0  0  0  0  0
   -2.5156   -0.7367    2.7684 N   0  0  0  0  0  0  0  0  0  0  0  0
   -1.3270    1.1522    3.0873 O   0  0  0  0  0  0  0  0  0  0  0  0
    1.1295   -0.4576   -1.1068 C   0  0  0  0  0  0  0  0  0  0  0  0
    2.4356   -0.4978   -0.7054 N   0  0  0  0  0  0  0  0  0  0  0  0
    0.5651   -1.4427   -1.5693 O   0  0  0  0  0  0  0  0  0  0  0  0
   -0.4279    0.9623   -1.5483 H   0  0  0  0  0  0  0  0  0  0  0  0
    1.5392    1.9734   -2.2053 H   0  0  0  0  0  0  0  0  0  0  0  0
    0.9222    2.8805   -1.0035 H   0  0  0  0  0  0  0  0  0  0  0  0
    0.8330    0.9381    1.2714 H   0  0  0  0  0  0  0  0  0  0  0  0
   -0.4392    2.0345    0.7474 H   0  0  0  0  0  0  0  0  0  0  0  0
   -1.9199    0.0346    0.2669 H   0  0  0  0  0  0  0  0  0  0  0  0
   -0.6504   -1.0194    0.9283 H   0  0  0  0  0  0  0  0  0  0  0  0
   -2.6140   -1.6204    2.2875 H   0  0  0  0  0  0  0  0  0  0  0  0
   -2.8462   -0.6734    3.7228 H   0  0  0  0  0  0  0  0  0  0  0  0
    2.9037    0.3982   -0.6047 H   0  0  0  0  0  0  0  0  0  0  0  0
    2.9802   -1.3094   -0.9589 H   0  0  0  0  0  0  0  0  0  0  0  0
  1  2  1  0
  1  3  1  0
  3  4  1  0
  4  5  1  0
  5  6  1  0
  5  7  2  0
  1  8  1  0
  8  9  1  0
  8 10  2  0
  1 11  1  6
  2 12  1  0
  2 13  1  0
  3 14  1  0
  3 15  1  0
  4 16  1  0
  4 17  1  0
  6 18  1  0
  6 19  1  0
  9 20  1  0
  9 21  1  0
M  END
