
     RDKit          3D

 30 30  0  0  0  0  0  0  0  0999 V2000
    0.4698    1.6544    2.7904 C   0  0  0  0  0  0  0  0  0  0  0  0
    1.5135    1.0586    1.8476 C   0  0  2  0  0  0  0  0  0  0  0  0
    2.8409    1.2597    2.4401 N   0  0  0  0  0  0  0  0  0  0  0  0
    1.4970    1.7053    0.4514 C   0  0  0  0  0  0  0  0  0  0  0  0
    0.1896    1.5238   -0.3317 C   0  0  0  0  0  0  0  0  0  0  0  0
   -0.1299    0.0855   -0.6622 C   0  0  0  0  0  0  0  0  0  0  0  0
   -1.1964   -0.5687   -0.0325 C   0  0  0  0  0  0  0  0  0  0  0  0
   -1.4831   -1.9033   -0.3296 C   0  0  0  0  0  0  0  0  0  0  0  0
   -0.7146   -2.5987   -1.2696 C   0  0  0  0  0  0  0  0  0  0  0  0
    0.3577   -1.9539   -1.8960 C   0  0  0  0  0  0  0  0  0  0  0  0
    0.6439   -0.6188   -1.5953 C   0  0  0  0  0  0  0  0  0  0  0  0
   -1.0589   -4.0178   -1.5512 C   0  0  0  0  0  0  0  0  0  0  0  0
   -0.6563   -4.5389   -2.7503 N   0  0  0  0  0  0  0  0  0  0  0  0
   -1.7084   -4.6926   -0.7627 O   0  0  0  0  0  0  0  0  0  0  0  0
    0.5841    2.7404    2.8812 H   0  0  0  0  0  0  0  0  0  0  0  0
    0.5549    1.2221    3.7941 H   0  0  0  0  0  0  0  0  0  0  0  0
   -0.5462    1.4494    2.4408 H   0  0  0  0  0  0  0  0  0  0  0  0
    1.3430   -0.0204    1.7634 H   0  0  0  0  0  0  0  0  0  0  0  0
    3.5431    0.7946    1.8655 H   0  0  0  0  0  0  0  0  0  0  0  0
    2.8786    0.8048    3.3521 H   0  0  0  0  0  0  0  0  0  0  0  0
    1.6859    2.7831    0.5483 H   0  0  0  0  0  0  0  0  0  0  0  0
    2.3284    1.3031   -0.1431 H   0  0  0  0  0  0  0  0  0  0  0  0
   -0.6456    1.9862    0.2071 H   0  0  0  0  0  0  0  0  0  0  0  0
    0.2643    2.0780   -1.2767 H   0  0  0  0  0  0  0  0  0  0  0  0
   -1.8116   -0.0479    0.6982 H   0  0  0  0  0  0  0  0  0  0  0  0
   -2.3111   -2.4000    0.1730 H   0  0  0  0  0  0  0  0  0  0  0  0
    0.9963   -2.4794   -2.5995 H   0  0  0  0  0  0  0  0  0  0  0  0
    1.4819   -0.1312   -2.0898 H   0  0  0  0  0  0  0  0  0  0  0  0
   -1.0207   -5.4575   -2.9703 H   0  0  0  0  0  0  0  0  0  0  0  0
   -0.3959   -3.9484   -3.5266 H   0  0  0  0  0  0  0  0  0  0  0  0
  1  2  1  0
  2  3  1  0
  2  4  1  0
  4  5  1  0
  5  6  1  0
  6  7  2  0
  7  8  1  0
  8  9  2  0
  9 10  1  0
 10 11  2  0
  9 12  1  0
 12 13  1  0
 12 14  2  0
 11  6  1  0
  1 15  1  0
  1 16  1  0
  1 17  1  0
  2 18  1  6
  3 19  1  0
  3 20  1  0
  4 21  1  0
  4 22  1  0
  5 23  1  0
  5 24  1  0
  7 25  1  0
  8 26  1  0
 10 27  1  0
 11 28  1  0
 13 29  1  0
 13 30  1  0
M  END
