
     RDKit          3D

 30 29  0  0  0  0  0  0  0  0999 V2000
    0.1321   -0.4398    3.4795 C   0  0  0  0  0  0  0  0  0  0  0  0
   -0.0901   -0.2205    1.9902 C   0  0  0  0  0  0  0  0  0  0  0  0
    1.0800   -0.7637    1.1658 C   0  0  0  0  0  0  0  0  0  0  0  0
    0.9911   -0.4153   -0.3381 C   0  0  1  0  0  0  0  0  0  0  0  0
    2.2212   -0.9038   -0.9931 N   0  0  0  0  0  0  0  0  0  0  0  0
   -0.2810   -0.9840   -1.0547 C   0  0  2  0  0  0  0  0  0  0  0  0
   -0.2538   -2.4587   -1.1313 N   0  0  0  0  0  0  0  0  0  0  0  0
   -0.4594   -0.4619   -2.4991 C   0  0  0  0  0  0  0  0  0  0  0  0
   -0.6768    1.0518   -2.5802 C   0  0  0  0  0  0  0  0  0  0  0  0
   -1.0110    1.4882   -3.9991 C   0  0  0  0  0  0  0  0  0  0  0  0
    0.2370   -1.5053    3.7074 H   0  0  0  0  0  0  0  0  0  0  0  0
    1.0348    0.0761    3.8222 H   0  0  0  0  0  0  0  0  0  0  0  0
   -0.7174   -0.0519    4.0503 H   0  0  0  0  0  0  0  0  0  0  0  0
   -0.2157    0.8515    1.8000 H   0  0  0  0  0  0  0  0  0  0  0  0
   -1.0227   -0.7174    1.7042 H   0  0  0  0  0  0  0  0  0  0  0  0
    1.1525   -1.8488    1.3106 H   0  0  0  0  0  0  0  0  0  0  0  0
    2.0106   -0.3399    1.5680 H   0  0  0  0  0  0  0  0  0  0  0  0
    0.9861    0.6767   -0.4187 H   0  0  0  0  0  0  0  0  0  0  0  0
    2.3256   -1.9003   -0.8097 H   0  0  0  0  0  0  0  0  0  0  0  0
    3.0309   -0.4572   -0.5633 H   0  0  0  0  0  0  0  0  0  0  0  0
   -1.1752   -0.6983   -0.4912 H   0  0  0  0  0  0  0  0  0  0  0  0
    0.5413   -2.7228   -1.7141 H   0  0  0  0  0  0  0  0  0  0  0  0
   -0.0791   -2.8499   -0.2093 H   0  0  0  0  0  0  0  0  0  0  0  0
   -1.3313   -0.9588   -2.9468 H   0  0  0  0  0  0  0  0  0  0  0  0
    0.4039   -0.7374   -3.1185 H   0  0  0  0  0  0  0  0  0  0  0  0
    0.2224    1.5864   -2.2581 H   0  0  0  0  0  0  0  0  0  0  0  0
   -1.4933    1.3483   -1.9120 H   0  0  0  0  0  0  0  0  0  0  0  0
   -0.2024    1.2284   -4.6898 H   0  0  0  0  0  0  0  0  0  0  0  0
   -1.9310    1.0104   -4.3508 H   0  0  0  0  0  0  0  0  0  0  0  0
   -1.1560    2.5724   -4.0377 H   0  0  0  0  0  0  0  0  0  0  0  0
  1  2  1  0
  2  3  1  0
  3  4  1  0
  4  5  1  0
  4  6  1  0
  6  7  1  0
  6  8  1  0
  8  9  1  0
  9 10  1  0
  1 11  1  0
  1 12  1  0
  1 13  1  0
  2 14  1  0
  2 15  1  0
  3 16  1  0
  3 17  1  0
  4 18  1  1
  5 19  1  0
  5 20  1  0
  6 21  1  1
  7 22  1  0
  7 23  1  0
  8 24  1  0
  8 25  1  0
  9 26  1  0
  9 27  1  0
 10 28  1  0
 10 29  1  0
 10 30  1  0
M  END
