
     RDKit          3D

 18 17  0  0  0  0  0  0  0  0999 V2000
    3.3776    0.6354    0.0884 C   0  0  0  0  0  0  0  0  0  0  0  0
    1.9013    0.7320    0.4588 C   0  0  0  0  0  0  0  0  0  0  0  0
    1.0253   -0.4853    0.0699 C   0  0  1  0  0  0  0  0  0  0  0  0
    1.0456   -0.7427   -1.4430 C   0  0  0  0  0  0  0  0  0  0  0  0
    1.4772   -1.6999    0.7509 N   0  0  0  0  0  0  0  0  0  0  0  0
   -0.3672   -0.2240    0.4978 C   0  0  0  0  0  0  0  0  0  0  0  0
   -1.4975   -0.0142    0.8478 C   0  0  0  0  0  0  0  0  0  0  0  0
    3.5171    0.5498   -0.9928 H   0  0  0  0  0  0  0  0  0  0  0  0
    3.9002    1.5406    0.4154 H   0  0  0  0  0  0  0  0  0  0  0  0
    3.8626   -0.2166    0.5732 H   0  0  0  0  0  0  0  0  0  0  0  0
    1.8331    0.9045    1.5423 H   0  0  0  0  0  0  0  0  0  0  0  0
    1.4929    1.6376   -0.0108 H   0  0  0  0  0  0  0  0  0  0  0  0
    2.0405   -1.0329   -1.7984 H   0  0  0  0  0  0  0  0  0  0  0  0
    0.3537   -1.5473   -1.7230 H   0  0  0  0  0  0  0  0  0  0  0  0
    0.7402    0.1519   -1.9990 H   0  0  0  0  0  0  0  0  0  0  0  0
    2.4325   -1.9178    0.4799 H   0  0  0  0  0  0  0  0  0  0  0  0
    1.4898   -1.5329    1.7555 H   0  0  0  0  0  0  0  0  0  0  0  0
   -2.5012    0.1622    1.1580 H   0  0  0  0  0  0  0  0  0  0  0  0
  1  2  1  0
  2  3  1  0
  3  4  1  0
  3  5  1  0
  3  6  1  1
  6  7  3  0
  1  8  1  0
  1  9  1  0
  1 10  1  0
  2 11  1  0
  2 12  1  0
  4 13  1  0
  4 14  1  0
  4 15  1  0
  5 16  1  0
  5 17  1  0
  7 18  1  0
M  END
