
     RDKit          3D

 20 19  0  0  0  0  0  0  0  0999 V2000
    2.0249    0.7862    0.8788 C   0  0  0  0  0  0  0  0  0  0  0  0
    1.2682   -0.3473    0.2038 C   0  0  0  0  0  0  0  0  0  0  0  0
   -0.2327   -0.3542    0.5148 C   0  0  0  0  0  0  0  0  0  0  0  0
   -1.0135    0.8725    0.0240 C   0  0  2  0  0  0  0  0  0  0  0  0
   -2.3968    0.8026    0.5455 N   0  0  0  0  0  0  0  0  0  0  0  0
   -1.0713    0.9236   -1.5175 C   0  0  0  0  0  0  0  0  0  0  0  0
   -0.0801    1.6338   -2.1289 N   0  0  0  0  0  0  0  0  0  0  0  0
   -1.9443    0.3712   -2.1822 O   0  0  0  0  0  0  0  0  0  0  0  0
    1.7262    1.7619    0.4858 H   0  0  0  0  0  0  0  0  0  0  0  0
    1.8559    0.7820    1.9602 H   0  0  0  0  0  0  0  0  0  0  0  0
    3.1000    0.6751    0.7044 H   0  0  0  0  0  0  0  0  0  0  0  0
    1.6924   -1.2977    0.5507 H   0  0  0  0  0  0  0  0  0  0  0  0
    1.4383   -0.3128   -0.8773 H   0  0  0  0  0  0  0  0  0  0  0  0
   -0.3562   -0.4534    1.6016 H   0  0  0  0  0  0  0  0  0  0  0  0
   -0.6621   -1.2622    0.0701 H   0  0  0  0  0  0  0  0  0  0  0  0
   -0.5696    1.7991    0.4008 H   0  0  0  0  0  0  0  0  0  0  0  0
   -2.8404   -0.0147    0.1140 H   0  0  0  0  0  0  0  0  0  0  0  0
   -2.9236    1.5899    0.1636 H   0  0  0  0  0  0  0  0  0  0  0  0
   -0.1432    1.7362   -3.1338 H   0  0  0  0  0  0  0  0  0  0  0  0
    0.5340    2.2559   -1.6224 H   0  0  0  0  0  0  0  0  0  0  0  0
  1  2  1  0
  2  3  1  0
  3  4  1  0
  4  5  1  0
  4  6  1  0
  6  7  1  0
  6  8  2  0
  1  9  1  0
  1 10  1  0
  1 11  1  0
  2 12  1  0
  2 13  1  0
  3 14  1  0
  3 15  1  0
  4 16  1  1
  5 17  1  0
  5 18  1  0
  7 19  1  0
  7 20  1  0
M  END
