
     RDKit          3D

 26 26  0  0  0  0  0  0  0  0999 V2000
    2.1389   -0.5670    3.1356 C   0  0  0  0  0  0  0  0  0  0  0  0
    1.2365   -0.5973    1.9030 C   0  0  2  0  0  0  0  0  0  0  0  0
    1.4867   -1.8460    1.1724 N   0  0  0  0  0  0  0  0  0  0  0  0
    1.4929    0.6417    1.0191 C   0  0  0  0  0  0  0  0  0  0  0  0
    0.4984    0.7930   -0.1112 C   0  0  0  0  0  0  0  0  0  0  0  0
    0.8373    0.3984   -1.4114 C   0  0  0  0  0  0  0  0  0  0  0  0
   -0.0833    0.5261   -2.4538 C   0  0  0  0  0  0  0  0  0  0  0  0
   -1.3596    1.0568   -2.2168 C   0  0  0  0  0  0  0  0  0  0  0  0
   -1.7004    1.4412   -0.9116 C   0  0  0  0  0  0  0  0  0  0  0  0
   -0.7793    1.3128    0.1307 C   0  0  0  0  0  0  0  0  0  0  0  0
   -2.3621    1.1744   -3.3376 C   0  0  0  0  0  0  0  0  0  0  0  0
   -3.2365    2.2059   -3.1682 F   0  0  0  0  0  0  0  0  0  0  0  0
   -3.1269    0.0551   -3.4672 F   0  0  0  0  0  0  0  0  0  0  0  0
   -1.7849    1.3754   -4.5556 F   0  0  0  0  0  0  0  0  0  0  0  0
    1.9535    0.3356    3.7279 H   0  0  0  0  0  0  0  0  0  0  0  0
    3.1991   -0.5760    2.8583 H   0  0  0  0  0  0  0  0  0  0  0  0
    1.9509   -1.4305    3.7835 H   0  0  0  0  0  0  0  0  0  0  0  0
    0.1925   -0.5994    2.2395 H   0  0  0  0  0  0  0  0  0  0  0  0
    1.2486   -2.6409    1.7646 H   0  0  0  0  0  0  0  0  0  0  0  0
    0.8548   -1.8931    0.3718 H   0  0  0  0  0  0  0  0  0  0  0  0
    2.5135    0.6152    0.6139 H   0  0  0  0  0  0  0  0  0  0  0  0
    1.4470    1.5507    1.6339 H   0  0  0  0  0  0  0  0  0  0  0  0
    1.8226   -0.0168   -1.6172 H   0  0  0  0  0  0  0  0  0  0  0  0
    0.2020    0.2100   -3.4563 H   0  0  0  0  0  0  0  0  0  0  0  0
   -2.6890    1.8471   -0.7011 H   0  0  0  0  0  0  0  0  0  0  0  0
   -1.0652    1.6226    1.1339 H   0  0  0  0  0  0  0  0  0  0  0  0
  1  2  1  0
  2  3  1  0
  2  4  1  0
  4  5  1  0
  5  6  2  0
  6  7  1  0
  7  8  2  0
  8  9  1  0
  9 10  2  0
  8 11  1  0
 11 12  1  0
 11 13  1  0
 11 14  1  0
 10  5  1  0
  1 15  1  0
  1 16  1  0
  1 17  1  0
  2 18  1  1
  3 19  1  0
  3 20  1  0
  4 21  1  0
  4 22  1  0
  6 23  1  0
  7 24  1  0
  9 25  1  0
 10 26  1  0
M  END
