
     RDKit          3D

 23 22  0  0  0  0  0  0  0  0999 V2000
    1.2536   -1.0851   -0.8844 C   0  0  2  0  0  0  0  0  0  0  0  0
    1.3339   -2.2470    0.0231 N   0  0  0  0  0  0  0  0  0  0  0  0
    1.0697    0.2286   -0.1091 C   0  0  0  0  0  0  0  0  0  0  0  0
   -0.2170    0.3073    0.7232 C   0  0  0  0  0  0  0  0  0  0  0  0
   -0.3429    1.6660    1.4152 C   0  0  0  0  0  0  0  0  0  0  0  0
   -1.6141    1.7531    2.2448 C   0  0  0  0  0  0  0  0  0  0  0  0
    0.1410   -1.3105   -1.9313 C   0  0  0  0  0  0  0  0  0  0  0  0
    0.0684   -0.3869   -2.9332 N   0  0  0  0  0  0  0  0  0  0  0  0
   -0.6389   -2.2593   -1.9025 O   0  0  0  0  0  0  0  0  0  0  0  0
    2.2022   -1.0349   -1.4331 H   0  0  0  0  0  0  0  0  0  0  0  0
    0.4026   -2.3916    0.4229 H   0  0  0  0  0  0  0  0  0  0  0  0
    1.4630   -3.0816   -0.5545 H   0  0  0  0  0  0  0  0  0  0  0  0
    1.9321    0.3719    0.5552 H   0  0  0  0  0  0  0  0  0  0  0  0
    1.0854    1.0686   -0.8151 H   0  0  0  0  0  0  0  0  0  0  0  0
   -1.0901    0.1474    0.0802 H   0  0  0  0  0  0  0  0  0  0  0  0
   -0.2234   -0.4824    1.4831 H   0  0  0  0  0  0  0  0  0  0  0  0
   -0.3475    2.4666    0.6663 H   0  0  0  0  0  0  0  0  0  0  0  0
    0.5232    1.8344    2.0656 H   0  0  0  0  0  0  0  0  0  0  0  0
   -2.5016    1.6204    1.6178 H   0  0  0  0  0  0  0  0  0  0  0  0
   -1.6840    2.7318    2.7297 H   0  0  0  0  0  0  0  0  0  0  0  0
   -1.6266    0.9856    3.0252 H   0  0  0  0  0  0  0  0  0  0  0  0
    0.8085    0.2775   -3.1116 H   0  0  0  0  0  0  0  0  0  0  0  0
   -0.6037   -0.5633   -3.6691 H   0  0  0  0  0  0  0  0  0  0  0  0
  1  2  1  0
  1  3  1  0
  3  4  1  0
  4  5  1  0
  5  6  1  0
  1  7  1  0
  7  8  1  0
  7  9  2  0
  1 10  1  6
  2 11  1  0
  2 12  1  0
  3 13  1  0
  3 14  1  0
  4 15  1  0
  4 16  1  0
  5 17  1  0
  5 18  1  0
  6 19  1  0
  6 20  1  0
  6 21  1  0
  8 22  1  0
  8 23  1  0
M  END
