
     RDKit          3D

 14 13  0  0  0  0  0  0  0  0999 V2000
   -1.1619    0.6230    1.1009 C   0  0  2  0  0  0  0  0  0  0  0  0
   -2.4218    1.0737    0.3635 C   0  0  0  0  0  0  0  0  0  0  0  0
   -1.1439    1.2485    2.4301 N   0  0  0  0  0  0  0  0  0  0  0  0
    0.0930    0.9551    0.2692 C   0  0  0  0  0  0  0  0  0  0  0  0
    1.6315    0.4284    1.0960 S   0  0  0  0  0  0  0  0  0  0  0  0
   -1.2223   -0.4633    1.2408 H   0  0  0  0  0  0  0  0  0  0  0  0
   -3.3230    0.8138    0.9301 H   0  0  0  0  0  0  0  0  0  0  0  0
   -2.4930    0.5840   -0.6137 H   0  0  0  0  0  0  0  0  0  0  0  0
   -2.4264    2.1571    0.1981 H   0  0  0  0  0  0  0  0  0  0  0  0
   -0.2608    1.0076    2.8871 H   0  0  0  0  0  0  0  0  0  0  0  0
   -1.1201    2.2638    2.3327 H   0  0  0  0  0  0  0  0  0  0  0  0
    0.1616    2.0328    0.0847 H   0  0  0  0  0  0  0  0  0  0  0  0
    0.0442    0.4531   -0.7029 H   0  0  0  0  0  0  0  0  0  0  0  0
    1.3281   -0.8765    1.1656 H   0  0  0  0  0  0  0  0  0  0  0  0
  1  2  1  0
  1  3  1  0
  1  4  1  0
  4  5  1  0
  1  6  1  1
  2  7  1  0
  2  8  1  0
  2  9  1  0
  3 10  1  0
  3 11  1  0
  4 12  1  0
  4 13  1  0
  5 14  1  0
M  END
