
     RDKit          3D

 23 22  0  0  0  0  0  0  0  0999 V2000
    0.0324    0.6037   -2.4466 C   0  0  0  0  0  0  0  0  0  0  0  0
   -0.3001    0.2354   -0.9961 C   0  0  0  0  0  0  0  0  0  0  0  0
   -0.5284   -1.2737   -0.8966 C   0  0  0  0  0  0  0  0  0  0  0  0
    0.8313    0.7172   -0.0680 C   0  0  0  0  0  0  0  0  0  0  0  0
    0.6185    0.5281    1.4511 C   0  0  1  0  0  0  0  0  0  0  0  0
    1.9041    0.8789    2.0922 N   0  0  0  0  0  0  0  0  0  0  0  0
   -0.5064    1.4099    2.0411 C   0  0  0  0  0  0  0  0  0  0  0  0
   -2.1522    0.6343    2.0101 S   0  0  0  0  0  0  0  0  0  0  0  0
    0.1620    1.6859   -2.5533 H   0  0  0  0  0  0  0  0  0  0  0  0
    0.9550    0.1165   -2.7803 H   0  0  0  0  0  0  0  0  0  0  0  0
   -0.7752    0.2978   -3.1204 H   0  0  0  0  0  0  0  0  0  0  0  0
   -1.2298    0.7534   -0.7416 H   0  0  0  0  0  0  0  0  0  0  0  0
    0.3854   -1.8288   -1.1347 H   0  0  0  0  0  0  0  0  0  0  0  0
   -0.8512   -1.5699    0.1049 H   0  0  0  0  0  0  0  0  0  0  0  0
   -1.3078   -1.5937   -1.5967 H   0  0  0  0  0  0  0  0  0  0  0  0
    1.0161    1.7824   -0.2675 H   0  0  0  0  0  0  0  0  0  0  0  0
    1.7530    0.1940   -0.3621 H   0  0  0  0  0  0  0  0  0  0  0  0
    0.4420   -0.5282    1.6799 H   0  0  0  0  0  0  0  0  0  0  0  0
    2.1069    1.8686    1.9564 H   0  0  0  0  0  0  0  0  0  0  0  0
    1.8393    0.7293    3.0987 H   0  0  0  0  0  0  0  0  0  0  0  0
   -0.3067    1.6192    3.0983 H   0  0  0  0  0  0  0  0  0  0  0  0
   -0.5580    2.3765    1.5283 H   0  0  0  0  0  0  0  0  0  0  0  0
   -2.8085    1.6462    2.5962 H   0  0  0  0  0  0  0  0  0  0  0  0
  1  2  1  0
  2  3  1  0
  2  4  1  0
  4  5  1  0
  5  6  1  0
  5  7  1  0
  7  8  1  0
  1  9  1  0
  1 10  1  0
  1 11  1  0
  2 12  1  0
  3 13  1  0
  3 14  1  0
  3 15  1  0
  4 16  1  0
  4 17  1  0
  5 18  1  6
  6 19  1  0
  6 20  1  0
  7 21  1  0
  7 22  1  0
  8 23  1  0
M  END
