
     RDKit          3D

 25 24  0  0  0  0  0  0  0  0999 V2000
    1.3063   -1.6837   -0.8511 C   0  0  2  0  0  0  0  0  0  0  0  0
    0.8175   -2.1787   -2.1457 N   0  0  0  0  0  0  0  0  0  0  0  0
    0.1485   -1.6241    0.1685 C   0  0  0  0  0  0  0  0  0  0  0  0
    0.6846   -1.2507    1.8702 S   0  0  0  0  0  0  0  0  0  0  0  0
    2.1179   -0.3813   -1.0370 C   0  0  0  0  0  0  0  0  0  0  0  0
    1.5501    0.7207   -1.9455 C   0  0  0  0  0  0  0  0  0  0  0  0
    0.2256    1.3262   -1.4823 C   0  0  0  0  0  0  0  0  0  0  0  0
   -0.1189    2.6360   -2.1978 C   0  0  0  0  0  0  0  0  0  0  0  0
   -0.2631    2.4552   -3.6374 N   0  0  0  0  0  0  0  0  0  0  0  0
    2.0147   -2.4387   -0.4827 H   0  0  0  0  0  0  0  0  0  0  0  0
    1.5889   -2.2141   -2.8125 H   0  0  0  0  0  0  0  0  0  0  0  0
    0.4780   -3.1349   -2.0491 H   0  0  0  0  0  0  0  0  0  0  0  0
   -0.3531   -2.5981    0.2087 H   0  0  0  0  0  0  0  0  0  0  0  0
   -0.6110   -0.8939   -0.1157 H   0  0  0  0  0  0  0  0  0  0  0  0
    1.4716   -2.3256    2.0232 H   0  0  0  0  0  0  0  0  0  0  0  0
    2.3610    0.0577   -0.0629 H   0  0  0  0  0  0  0  0  0  0  0  0
    3.0875   -0.6652   -1.4711 H   0  0  0  0  0  0  0  0  0  0  0  0
    2.3035    1.5179   -1.9952 H   0  0  0  0  0  0  0  0  0  0  0  0
    1.4480    0.3396   -2.9685 H   0  0  0  0  0  0  0  0  0  0  0  0
   -0.5867    0.6114   -1.6519 H   0  0  0  0  0  0  0  0  0  0  0  0
    0.2689    1.5256   -0.4051 H   0  0  0  0  0  0  0  0  0  0  0  0
   -1.0579    3.0280   -1.7915 H   0  0  0  0  0  0  0  0  0  0  0  0
    0.6578    3.3839   -2.0054 H   0  0  0  0  0  0  0  0  0  0  0  0
   -0.6149    3.3156   -4.0539 H   0  0  0  0  0  0  0  0  0  0  0  0
   -0.9616    1.7363   -3.8231 H   0  0  0  0  0  0  0  0  0  0  0  0
  1  2  1  0
  1  3  1  0
  3  4  1  0
  1  5  1  0
  5  6  1  0
  6  7  1  0
  7  8  1  0
  8  9  1  0
  1 10  1  1
  2 11  1  0
  2 12  1  0
  3 13  1  0
  3 14  1  0
  4 15  1  0
  5 16  1  0
  5 17  1  0
  6 18  1  0
  6 19  1  0
  7 20  1  0
  7 21  1  0
  8 22  1  0
  8 23  1  0
  9 24  1  0
  9 25  1  0
M  END
