
     RDKit          3D

 21 20  0  0  0  0  0  0  0  0999 V2000
    0.8694   -0.0481    0.1645 C   0  0  0  0  0  0  0  0  0  0  0  0
   -0.5018   -0.7023    0.1839 C   0  0  0  0  0  0  0  0  0  0  0  0
   -0.9685   -1.2659   -1.1645 C   0  0  0  0  0  0  0  0  0  0  0  0
   -1.2035   -0.2697   -2.3202 C   0  0  2  0  0  0  0  0  0  0  0  0
    0.0755    0.2169   -2.8562 N   0  0  0  0  0  0  0  0  0  0  0  0
   -2.1196    0.9262   -1.9575 C   0  0  0  0  0  0  0  0  0  0  0  0
   -3.4587    0.5211   -1.5264 N   0  0  0  0  0  0  0  0  0  0  0  0
    0.8545    0.9003   -0.3793 H   0  0  0  0  0  0  0  0  0  0  0  0
    1.6161   -0.7059   -0.2909 H   0  0  0  0  0  0  0  0  0  0  0  0
    1.1928    0.1707    1.1876 H   0  0  0  0  0  0  0  0  0  0  0  0
   -1.2380    0.0053    0.5800 H   0  0  0  0  0  0  0  0  0  0  0  0
   -0.4685   -1.5347    0.8981 H   0  0  0  0  0  0  0  0  0  0  0  0
   -1.9074   -1.8069   -0.9865 H   0  0  0  0  0  0  0  0  0  0  0  0
   -0.2547   -2.0344   -1.4913 H   0  0  0  0  0  0  0  0  0  0  0  0
   -1.6886   -0.8291   -3.1315 H   0  0  0  0  0  0  0  0  0  0  0  0
   -0.1004    0.7643   -3.6985 H   0  0  0  0  0  0  0  0  0  0  0  0
    0.6407   -0.5789   -3.1506 H   0  0  0  0  0  0  0  0  0  0  0  0
   -2.2357    1.5671   -2.8400 H   0  0  0  0  0  0  0  0  0  0  0  0
   -1.6604    1.5455   -1.1786 H   0  0  0  0  0  0  0  0  0  0  0  0
   -3.3907    0.0141   -0.6446 H   0  0  0  0  0  0  0  0  0  0  0  0
   -4.0049    1.3576   -1.3224 H   0  0  0  0  0  0  0  0  0  0  0  0
  1  2  1  0
  2  3  1  0
  3  4  1  0
  4  5  1  0
  4  6  1  0
  6  7  1  0
  1  8  1  0
  1  9  1  0
  1 10  1  0
  2 11  1  0
  2 12  1  0
  3 13  1  0
  3 14  1  0
  4 15  1  6
  5 16  1  0
  5 17  1  0
  6 18  1  0
  6 19  1  0
  7 20  1  0
  7 21  1  0
M  END
