
     RDKit          3D

 23 23  0  0  0  0  0  0  0  0999 V2000
   -0.5737   -2.0247    3.0125 N   0  0  0  0  0  0  0  0  0  0  0  0
   -0.8742   -1.0711    1.8983 C   0  0  2  0  0  0  0  0  0  0  0  0
    0.3747   -0.9586    0.9954 C   0  0  0  0  0  0  0  0  0  0  0  0
    0.1218   -0.3344   -0.3549 C   0  0  0  0  0  0  0  0  0  0  0  0
    0.6066    0.9472   -0.6489 C   0  0  0  0  0  0  0  0  0  0  0  0
    0.3693    1.5235   -1.8977 C   0  0  0  0  0  0  0  0  0  0  0  0
   -0.3505    0.8248   -2.8647 C   0  0  0  0  0  0  0  0  0  0  0  0
   -0.8334   -0.4517   -2.5846 C   0  0  0  0  0  0  0  0  0  0  0  0
   -0.5983   -1.0300   -1.3364 C   0  0  0  0  0  0  0  0  0  0  0  0
   -1.3434    0.3322    2.3730 C   0  0  0  0  0  0  0  0  0  0  0  0
   -0.3459    0.9782    3.0253 F   0  0  0  0  0  0  0  0  0  0  0  0
   -1.7437    1.1181    1.3523 F   0  0  0  0  0  0  0  0  0  0  0  0
   -2.3884    0.2365    3.2291 F   0  0  0  0  0  0  0  0  0  0  0  0
    0.1291   -1.6132    3.6296 H   0  0  0  0  0  0  0  0  0  0  0  0
   -0.1709   -2.8832    2.6391 H   0  0  0  0  0  0  0  0  0  0  0  0
   -1.6997   -1.5177    1.3319 H   0  0  0  0  0  0  0  0  0  0  0  0
    0.7901   -1.9587    0.8063 H   0  0  0  0  0  0  0  0  0  0  0  0
    1.1692   -0.4119    1.5207 H   0  0  0  0  0  0  0  0  0  0  0  0
    1.1664    1.5123    0.0935 H   0  0  0  0  0  0  0  0  0  0  0  0
    0.7439    2.5205   -2.1150 H   0  0  0  0  0  0  0  0  0  0  0  0
   -0.5358    1.2759   -3.8359 H   0  0  0  0  0  0  0  0  0  0  0  0
   -1.3938   -0.9970   -3.3396 H   0  0  0  0  0  0  0  0  0  0  0  0
   -0.9794   -2.0296   -1.1391 H   0  0  0  0  0  0  0  0  0  0  0  0
  1  2  1  0
  2  3  1  0
  3  4  1  0
  4  5  2  0
  5  6  1  0
  6  7  2  0
  7  8  1  0
  8  9  2  0
  2 10  1  0
 10 11  1  0
 10 12  1  0
 10 13  1  0
  9  4  1  0
  1 14  1  0
  1 15  1  0
  2 16  1  6
  3 17  1  0
  3 18  1  0
  5 19  1  0
  6 20  1  0
  7 21  1  0
  8 22  1  0
  9 23  1  0
M  END
