
     RDKit          3D

 26 26  0  0  0  0  0  0  0  0999 V2000
   -3.3157    2.6452   -1.8097 C   0  0  0  0  0  0  0  0  0  0  0  0
   -1.8239    2.7311   -2.1224 C   0  0  1  0  0  0  0  0  0  0  0  0
   -1.2978    4.0111   -1.6390 N   0  0  0  0  0  0  0  0  0  0  0  0
   -1.0164    1.5152   -1.6580 C   0  0  0  0  0  0  0  0  0  0  0  0
   -1.1932    1.1159    0.0673 S   0  0  0  0  0  6  0  0  0  0  0  0
   -2.4657    0.4495    0.2689 O   0  0  0  0  0  0  0  0  0  0  0  0
   -0.8269    2.2807    0.8527 O   0  0  0  0  0  0  0  0  0  0  0  0
    0.0763   -0.1069    0.3173 C   0  0  0  0  0  0  0  0  0  0  0  0
    1.3380    0.2886    0.7698 C   0  0  0  0  0  0  0  0  0  0  0  0
    2.3264   -0.6753    0.9673 C   0  0  0  0  0  0  0  0  0  0  0  0
    2.0491   -2.0217    0.7229 C   0  0  0  0  0  0  0  0  0  0  0  0
    0.7813   -2.4117    0.2872 C   0  0  0  0  0  0  0  0  0  0  0  0
   -0.2133   -1.4548    0.0869 C   0  0  0  0  0  0  0  0  0  0  0  0
   -3.5211    2.7457   -0.7389 H   0  0  0  0  0  0  0  0  0  0  0  0
   -3.7303    1.6911   -2.1520 H   0  0  0  0  0  0  0  0  0  0  0  0
   -3.8636    3.4446   -2.3219 H   0  0  0  0  0  0  0  0  0  0  0  0
   -1.7307    2.7627   -3.2154 H   0  0  0  0  0  0  0  0  0  0  0  0
   -0.3104    4.1119   -1.8706 H   0  0  0  0  0  0  0  0  0  0  0  0
   -1.3436    4.0427   -0.6139 H   0  0  0  0  0  0  0  0  0  0  0  0
   -1.3225    0.6256   -2.2201 H   0  0  0  0  0  0  0  0  0  0  0  0
    0.0498    1.6837   -1.8473 H   0  0  0  0  0  0  0  0  0  0  0  0
    1.5573    1.3335    0.9777 H   0  0  0  0  0  0  0  0  0  0  0  0
    3.3115   -0.3800    1.3212 H   0  0  0  0  0  0  0  0  0  0  0  0
    2.8205   -2.7714    0.8844 H   0  0  0  0  0  0  0  0  0  0  0  0
    0.5672   -3.4638    0.1139 H   0  0  0  0  0  0  0  0  0  0  0  0
   -1.2038   -1.7680   -0.2359 H   0  0  0  0  0  0  0  0  0  0  0  0
  1  2  1  0
  2  3  1  0
  2  4  1  0
  4  5  1  0
  5  6  2  0
  5  7  2  0
  5  8  1  0
  8  9  2  0
  9 10  1  0
 10 11  2  0
 11 12  1  0
 12 13  2  0
 13  8  1  0
  1 14  1  0
  1 15  1  0
  1 16  1  0
  2 17  1  6
  3 18  1  0
  3 19  1  0
  4 20  1  0
  4 21  1  0
  9 22  1  0
 10 23  1  0
 11 24  1  0
 12 25  1  0
 13 26  1  0
M  END
