
     RDKit          3D

 39 40  0  0  0  0  0  0  0  0999 V2000
   -0.5507    3.6912   -1.8892 C   0  0  0  0  0  0  0  0  0  0  0  0
   -0.8883    2.3430   -1.2225 C   0  0  0  0  0  0  0  0  0  0  0  0
   -1.8593    2.6400   -0.0713 C   0  0  0  0  0  0  0  0  0  0  0  0
    0.4038    1.5604   -0.7712 C   0  0  2  0  0  0  0  0  0  0  0  0
    1.3281    1.4612   -1.9376 N   0  0  0  0  0  0  0  0  0  0  0  0
    0.1156    0.1586   -0.0338 C   0  0  0  0  0  0  0  0  0  0  0  0
   -0.7692    0.4665    0.9821 F   0  0  0  0  0  0  0  0  0  0  0  0
    1.3330   -0.4904    0.6667 C   0  0  0  0  0  0  0  0  0  0  0  0
    1.0810   -1.5067    1.6129 C   0  0  0  0  0  0  0  0  0  0  0  0
    2.1211   -2.1439    2.2925 C   0  0  0  0  0  0  0  0  0  0  0  0
    3.4388   -1.7760    2.0441 C   0  0  0  0  0  0  0  0  0  0  0  0
    3.7128   -0.7732    1.1180 C   0  0  0  0  0  0  0  0  0  0  0  0
    2.6702   -0.1347    0.4376 C   0  0  0  0  0  0  0  0  0  0  0  0
   -0.5418   -0.8440   -1.0074 C   0  0  0  0  0  0  0  0  0  0  0  0
    0.2023   -1.5224   -1.9897 C   0  0  0  0  0  0  0  0  0  0  0  0
   -0.4134   -2.4216   -2.8627 C   0  0  0  0  0  0  0  0  0  0  0  0
   -1.7814   -2.6625   -2.7654 C   0  0  0  0  0  0  0  0  0  0  0  0
   -2.5335   -2.0106   -1.7915 C   0  0  0  0  0  0  0  0  0  0  0  0
   -1.9186   -1.1122   -0.9168 C   0  0  0  0  0  0  0  0  0  0  0  0
   -1.4616    4.2572   -2.1147 H   0  0  0  0  0  0  0  0  0  0  0  0
   -0.0314    3.5546   -2.8427 H   0  0  0  0  0  0  0  0  0  0  0  0
    0.0768    4.3077   -1.2367 H   0  0  0  0  0  0  0  0  0  0  0  0
   -1.4271    1.7439   -1.9679 H   0  0  0  0  0  0  0  0  0  0  0  0
   -1.3349    3.0709    0.7877 H   0  0  0  0  0  0  0  0  0  0  0  0
   -2.6350    3.3497   -0.3804 H   0  0  0  0  0  0  0  0  0  0  0  0
   -2.3897    1.7426    0.2545 H   0  0  0  0  0  0  0  0  0  0  0  0
    0.9076    2.1944   -0.0284 H   0  0  0  0  0  0  0  0  0  0  0  0
    0.8147    1.0694   -2.7290 H   0  0  0  0  0  0  0  0  0  0  0  0
    1.6244    2.3923   -2.2247 H   0  0  0  0  0  0  0  0  0  0  0  0
    0.0548   -1.8056    1.8235 H   0  0  0  0  0  0  0  0  0  0  0  0
    1.8988   -2.9246    3.0148 H   0  0  0  0  0  0  0  0  0  0  0  0
    4.2513   -2.2688    2.5707 H   0  0  0  0  0  0  0  0  0  0  0  0
    4.7418   -0.4828    0.9220 H   0  0  0  0  0  0  0  0  0  0  0  0
    2.9371    0.6412   -0.2730 H   0  0  0  0  0  0  0  0  0  0  0  0
    1.2758   -1.3601   -2.0764 H   0  0  0  0  0  0  0  0  0  0  0  0
    0.1783   -2.9391   -3.6133 H   0  0  0  0  0  0  0  0  0  0  0  0
   -2.2597   -3.3656   -3.4421 H   0  0  0  0  0  0  0  0  0  0  0  0
   -3.5994   -2.2065   -1.7066 H   0  0  0  0  0  0  0  0  0  0  0  0
   -2.5232   -0.6243   -0.1549 H   0  0  0  0  0  0  0  0  0  0  0  0
  1  2  1  0
  2  3  1  0
  2  4  1  0
  4  5  1  0
  4  6  1  0
  6  7  1  0
  6  8  1  0
  8  9  2  0
  9 10  1  0
 10 11  2  0
 11 12  1  0
 12 13  2  0
  6 14  1  0
 14 15  2  0
 15 16  1  0
 16 17  2  0
 17 18  1  0
 18 19  2  0
 13  8  1  0
 19 14  1  0
  1 20  1  0
  1 21  1  0
  1 22  1  0
  2 23  1  0
  3 24  1  0
  3 25  1  0
  3 26  1  0
  4 27  1  1
  5 28  1  0
  5 29  1  0
  9 30  1  0
 10 31  1  0
 11 32  1  0
 12 33  1  0
 13 34  1  0
 15 35  1  0
 16 36  1  0
 17 37  1  0
 18 38  1  0
 19 39  1  0
M  END
