
     RDKit          3D

 21 20  0  0  0  0  0  0  0  0999 V2000
   -1.0541    1.2150   -1.2431 C   0  0  0  0  0  0  0  0  0  0  0  0
   -0.4099   -0.0832   -0.7355 C   0  0  0  0  0  0  0  0  0  0  0  0
   -1.1341   -1.2154   -1.3761 N   0  0  0  0  0  0  0  0  0  0  0  0
   -0.5348   -0.1590    0.8080 C   0  0  0  0  0  0  0  0  0  0  0  0
    0.0675   -1.3884    1.4409 C   0  0  0  0  0  0  0  0  0  0  0  0
    1.1026   -1.3725    2.2904 C   0  0  0  0  0  0  0  0  0  0  0  0
    1.0788   -0.1242   -1.1924 C   0  0  0  0  0  0  0  0  0  0  0  0
    1.9031    0.8644   -0.7388 N   0  0  0  0  0  0  0  0  0  0  0  0
    1.5219   -0.9786   -1.9596 O   0  0  0  0  0  0  0  0  0  0  0  0
   -2.1268    1.2439   -1.0187 H   0  0  0  0  0  0  0  0  0  0  0  0
   -0.5977    2.0967   -0.7788 H   0  0  0  0  0  0  0  0  0  0  0  0
   -0.9326    1.3241   -2.3276 H   0  0  0  0  0  0  0  0  0  0  0  0
   -1.0047   -1.1280   -2.3879 H   0  0  0  0  0  0  0  0  0  0  0  0
   -0.6116   -2.0686   -1.1581 H   0  0  0  0  0  0  0  0  0  0  0  0
   -0.0913    0.7380    1.2596 H   0  0  0  0  0  0  0  0  0  0  0  0
   -1.5970   -0.1332    1.0877 H   0  0  0  0  0  0  0  0  0  0  0  0
   -0.3976   -2.3421    1.1967 H   0  0  0  0  0  0  0  0  0  0  0  0
    1.5959   -0.4516    2.5826 H   0  0  0  0  0  0  0  0  0  0  0  0
    1.4792   -2.2976    2.7178 H   0  0  0  0  0  0  0  0  0  0  0  0
    2.8819    0.7661   -0.9785 H   0  0  0  0  0  0  0  0  0  0  0  0
    1.6766    1.4238    0.0707 H   0  0  0  0  0  0  0  0  0  0  0  0
  1  2  1  0
  2  3  1  0
  2  4  1  0
  4  5  1  0
  5  6  2  3
  2  7  1  0
  7  8  1  0
  7  9  2  0
  1 10  1  0
  1 11  1  0
  1 12  1  0
  3 13  1  0
  3 14  1  0
  4 15  1  0
  4 16  1  0
  5 17  1  0
  6 18  1  0
  6 19  1  0
  8 20  1  0
  8 21  1  0
M  END
