
     RDKit          3D

 20 19  0  0  0  0  0  0  0  0999 V2000
    0.1348   -0.5386   -0.9460 C   0  0  0  0  0  0  0  0  0  0  0  0
    0.4361   -1.0024    0.4830 C   0  0  0  0  0  0  0  0  0  0  0  0
   -0.4732   -2.1875    0.8395 C   0  0  0  0  0  0  0  0  0  0  0  0
    0.3425    0.1273    1.5495 C   0  0  2  0  0  0  0  0  0  0  0  0
   -1.0411    0.6241    1.6619 N   0  0  0  0  0  0  0  0  0  0  0  0
    1.3035    1.3195    1.3223 C   0  0  0  0  0  0  0  0  0  0  0  0
    3.0691    0.8788    1.3539 S   0  0  0  0  0  0  0  0  0  0  0  0
    0.2451   -1.3718   -1.6491 H   0  0  0  0  0  0  0  0  0  0  0  0
   -0.8868   -0.1584   -1.0448 H   0  0  0  0  0  0  0  0  0  0  0  0
    0.8260    0.2460   -1.2668 H   0  0  0  0  0  0  0  0  0  0  0  0
    1.4597   -1.3961    0.4892 H   0  0  0  0  0  0  0  0  0  0  0  0
   -0.3018   -3.0231    0.1520 H   0  0  0  0  0  0  0  0  0  0  0  0
   -0.2662   -2.5455    1.8535 H   0  0  0  0  0  0  0  0  0  0  0  0
   -1.5336   -1.9214    0.7790 H   0  0  0  0  0  0  0  0  0  0  0  0
    0.5883   -0.3181    2.5228 H   0  0  0  0  0  0  0  0  0  0  0  0
   -1.1054    1.2980    2.4247 H   0  0  0  0  0  0  0  0  0  0  0  0
   -1.3073    1.1253    0.8154 H   0  0  0  0  0  0  0  0  0  0  0  0
    1.0905    1.8269    0.3758 H   0  0  0  0  0  0  0  0  0  0  0  0
    1.1556    2.0594    2.1177 H   0  0  0  0  0  0  0  0  0  0  0  0
    3.0864    0.2028    0.1958 H   0  0  0  0  0  0  0  0  0  0  0  0
  1  2  1  0
  2  3  1  0
  2  4  1  0
  4  5  1  0
  4  6  1  0
  6  7  1  0
  1  8  1  0
  1  9  1  0
  1 10  1  0
  2 11  1  0
  3 12  1  0
  3 13  1  0
  3 14  1  0
  4 15  1  1
  5 16  1  0
  5 17  1  0
  6 18  1  0
  6 19  1  0
  7 20  1  0
M  END
