
     RDKit          3D

 25 25  0  0  0  0  0  0  0  0999 V2000
    0.0616    1.1364   -2.5352 C   0  0  0  0  0  0  0  0  0  0  0  0
   -0.4637    0.0432   -1.6090 C   0  0  1  0  0  0  0  0  0  0  0  0
   -1.5042    0.5585   -0.6017 C   0  0  0  0  0  0  0  0  0  0  0  0
   -0.9903    1.6147    0.3829 C   0  0  0  0  0  0  0  0  0  0  0  0
    0.1372    1.1312    1.2605 C   0  0  0  0  0  0  0  0  0  0  0  0
   -0.0799    0.1230    2.2101 C   0  0  0  0  0  0  0  0  0  0  0  0
    0.9669   -0.3311    3.0139 C   0  0  0  0  0  0  0  0  0  0  0  0
    2.2394    0.2200    2.8801 C   0  0  0  0  0  0  0  0  0  0  0  0
    2.4654    1.2279    1.9451 C   0  0  0  0  0  0  0  0  0  0  0  0
    1.4197    1.6832    1.1402 C   0  0  0  0  0  0  0  0  0  0  0  0
   -1.0655   -0.9939   -2.4074 N   0  0  0  0  0  4  0  0  0  0  0  0
   -1.5518   -1.8420   -3.0541 C   0  0  0  0  0  3  0  0  0  0  0  0
   -0.7582    1.6248   -3.0732 H   0  0  0  0  0  0  0  0  0  0  0  0
    0.6166    1.9010   -1.9851 H   0  0  0  0  0  0  0  0  0  0  0  0
    0.7377    0.7113   -3.2853 H   0  0  0  0  0  0  0  0  0  0  0  0
    0.3815   -0.4107   -1.0782 H   0  0  0  0  0  0  0  0  0  0  0  0
   -2.3566    0.9818   -1.1496 H   0  0  0  0  0  0  0  0  0  0  0  0
   -1.9081   -0.2966   -0.0438 H   0  0  0  0  0  0  0  0  0  0  0  0
   -1.8174    1.9265    1.0341 H   0  0  0  0  0  0  0  0  0  0  0  0
   -0.6909    2.5195   -0.1590 H   0  0  0  0  0  0  0  0  0  0  0  0
   -1.0680   -0.3152    2.3330 H   0  0  0  0  0  0  0  0  0  0  0  0
    0.7885   -1.1140    3.7465 H   0  0  0  0  0  0  0  0  0  0  0  0
    3.0537   -0.1331    3.5073 H   0  0  0  0  0  0  0  0  0  0  0  0
    3.4570    1.6616    1.8444 H   0  0  0  0  0  0  0  0  0  0  0  0
    1.6165    2.4738    0.4197 H   0  0  0  0  0  0  0  0  0  0  0  0
  1  2  1  0
  2  3  1  0
  3  4  1  0
  4  5  1  0
  5  6  2  0
  6  7  1  0
  7  8  2  0
  8  9  1  0
  9 10  2  0
  2 11  1  0
 11 12  3  0
 10  5  1  0
  1 13  1  0
  1 14  1  0
  1 15  1  0
  2 16  1  1
  3 17  1  0
  3 18  1  0
  4 19  1  0
  4 20  1  0
  6 21  1  0
  7 22  1  0
  8 23  1  0
  9 24  1  0
 10 25  1  0
M  CHG  2  11   1  12  -1
M  END
