
     RDKit          3D

 34 34  0  0  0  0  0  0  0  0999 V2000
    3.1338    1.0512   -1.3947 C   0  0  0  0  0  0  0  0  0  0  0  0
    2.9410    2.5019   -0.9511 C   0  0  2  0  0  0  0  0  0  0  0  0
    3.4492    2.6808    0.4156 N   0  0  0  0  0  0  0  0  0  0  0  0
    1.4822    2.9918   -1.1057 C   0  0  0  0  0  0  0  0  0  0  0  0
    0.4444    2.2566   -0.2873 C   0  0  0  0  0  0  0  0  0  0  0  0
   -0.2339    1.1497   -0.8211 C   0  0  0  0  0  0  0  0  0  0  0  0
   -1.1965    0.4322   -0.0795 C   0  0  0  0  0  0  0  0  0  0  0  0
   -1.4701    0.8755    1.2240 C   0  0  0  0  0  0  0  0  0  0  0  0
   -0.8054    1.9796    1.7653 C   0  0  0  0  0  0  0  0  0  0  0  0
    0.1458    2.6658    1.0149 C   0  0  0  0  0  0  0  0  0  0  0  0
   -1.9118   -0.7630   -0.7208 C   0  0  0  0  0  0  0  0  0  0  0  0
   -2.6914   -1.6431    0.2772 C   0  0  0  0  0  0  0  0  0  0  0  0
   -2.8924   -0.2555   -1.7935 C   0  0  0  0  0  0  0  0  0  0  0  0
   -0.9250   -1.6381   -1.3812 N   0  0  0  0  0  0  0  0  0  0  0  0
    2.6265    0.3456   -0.7283 H   0  0  0  0  0  0  0  0  0  0  0  0
    2.7485    0.9014   -2.4089 H   0  0  0  0  0  0  0  0  0  0  0  0
    4.1975    0.7875   -1.4043 H   0  0  0  0  0  0  0  0  0  0  0  0
    3.5583    3.1306   -1.6047 H   0  0  0  0  0  0  0  0  0  0  0  0
    2.8916    2.1044    1.0485 H   0  0  0  0  0  0  0  0  0  0  0  0
    4.3978    2.3127    0.4750 H   0  0  0  0  0  0  0  0  0  0  0  0
    1.1981    2.9376   -2.1654 H   0  0  0  0  0  0  0  0  0  0  0  0
    1.4324    4.0603   -0.8544 H   0  0  0  0  0  0  0  0  0  0  0  0
   -0.0069    0.8292   -1.8379 H   0  0  0  0  0  0  0  0  0  0  0  0
   -2.2082    0.3790    1.8472 H   0  0  0  0  0  0  0  0  0  0  0  0
   -1.0339    2.3071    2.7764 H   0  0  0  0  0  0  0  0  0  0  0  0
    0.6552    3.5235    1.4496 H   0  0  0  0  0  0  0  0  0  0  0  0
   -3.1342   -2.5157   -0.2192 H   0  0  0  0  0  0  0  0  0  0  0  0
   -2.0444   -2.0155    1.0806 H   0  0  0  0  0  0  0  0  0  0  0  0
   -3.5198   -1.0927    0.7383 H   0  0  0  0  0  0  0  0  0  0  0  0
   -3.6424    0.4138   -1.3548 H   0  0  0  0  0  0  0  0  0  0  0  0
   -3.4287   -1.0842   -2.2713 H   0  0  0  0  0  0  0  0  0  0  0  0
   -2.3829    0.3043   -2.5870 H   0  0  0  0  0  0  0  0  0  0  0  0
   -0.2740   -1.9816   -0.6758 H   0  0  0  0  0  0  0  0  0  0  0  0
   -1.3933   -2.4572   -1.7633 H   0  0  0  0  0  0  0  0  0  0  0  0
  1  2  1  0
  2  3  1  0
  2  4  1  0
  4  5  1  0
  5  6  2  0
  6  7  1  0
  7  8  2  0
  8  9  1  0
  9 10  2  0
  7 11  1  0
 11 12  1  0
 11 13  1  0
 11 14  1  0
 10  5  1  0
  1 15  1  0
  1 16  1  0
  1 17  1  0
  2 18  1  6
  3 19  1  0
  3 20  1  0
  4 21  1  0
  4 22  1  0
  6 23  1  0
  8 24  1  0
  9 25  1  0
 10 26  1  0
 12 27  1  0
 12 28  1  0
 12 29  1  0
 13 30  1  0
 13 31  1  0
 13 32  1  0
 14 33  1  0
 14 34  1  0
M  END
