
     RDKit          3D

 19 18  0  0  0  0  0  0  0  0999 V2000
    1.9916    0.9259   -0.2684 C   0  0  0  0  0  0  0  0  0  0  0  0
    1.2413    0.1972    0.8532 C   0  0  0  0  0  0  0  0  0  0  0  0
    1.2808   -1.3101    0.5546 C   0  0  0  0  0  0  0  0  0  0  0  0
   -0.2161    0.7221    1.0522 C   0  0  1  0  0  0  0  0  0  0  0  0
   -0.8707   -0.0055    2.1779 N   0  0  0  0  0  0  0  0  0  0  0  0
   -0.2765    2.2734    1.2112 C   0  0  0  0  0  0  0  0  0  0  0  0
    0.0866    2.9091    0.0743 F   0  0  0  0  0  0  0  0  0  0  0  0
    0.5437    2.6942    2.2024 F   0  0  0  0  0  0  0  0  0  0  0  0
   -1.5279    2.6950    1.5085 F   0  0  0  0  0  0  0  0  0  0  0  0
    2.1950    1.9668   -0.0001 H   0  0  0  0  0  0  0  0  0  0  0  0
    2.9643    0.4588   -0.4589 H   0  0  0  0  0  0  0  0  0  0  0  0
    1.4211    0.9099   -1.2029 H   0  0  0  0  0  0  0  0  0  0  0  0
    1.8032    0.3641    1.7823 H   0  0  0  0  0  0  0  0  0  0  0  0
    2.3043   -1.6401    0.3442 H   0  0  0  0  0  0  0  0  0  0  0  0
    0.6621   -1.5565   -0.3149 H   0  0  0  0  0  0  0  0  0  0  0  0
    0.9312   -1.9017    1.4058 H   0  0  0  0  0  0  0  0  0  0  0  0
   -0.7970    0.4803    0.1533 H   0  0  0  0  0  0  0  0  0  0  0  0
   -0.8767   -1.0080    2.0039 H   0  0  0  0  0  0  0  0  0  0  0  0
   -0.3396    0.1457    3.0367 H   0  0  0  0  0  0  0  0  0  0  0  0
  1  2  1  0
  2  3  1  0
  2  4  1  0
  4  5  1  0
  4  6  1  0
  6  7  1  0
  6  8  1  0
  6  9  1  0
  1 10  1  0
  1 11  1  0
  1 12  1  0
  2 13  1  0
  3 14  1  0
  3 15  1  0
  3 16  1  0
  4 17  1  6
  5 18  1  0
  5 19  1  0
M  END
