
     RDKit          3D

 25 25  0  0  0  0  0  0  0  0999 V2000
   -0.5415   -2.0161    4.4614 C   0  0  0  0  0  0  0  0  0  0  0  0
   -0.0539   -2.5661    3.1253 C   0  0  2  0  0  0  0  0  0  0  0  0
    1.1409   -3.3786    3.3365 N   0  0  0  0  0  0  0  0  0  0  0  0
    0.2522   -1.4755    2.1902 C   0  0  0  0  0  0  0  0  0  0  0  0
    0.5026   -0.5840    1.4244 C   0  0  0  0  0  0  0  0  0  0  0  0
    0.8021    0.4779    0.5144 C   0  0  0  0  0  0  0  0  0  0  0  0
    1.2803    1.6975    0.9955 C   0  0  0  0  0  0  0  0  0  0  0  0
    1.5741    2.7348    0.1063 C   0  0  0  0  0  0  0  0  0  0  0  0
    1.3826    2.5648   -1.2705 C   0  0  0  0  0  0  0  0  0  0  0  0
    1.7300    3.6679   -2.2260 C   0  0  0  0  0  0  0  0  0  0  0  0
    0.9161    1.3332   -1.7466 C   0  0  0  0  0  0  0  0  0  0  0  0
    0.6221    0.2959   -0.8575 C   0  0  0  0  0  0  0  0  0  0  0  0
    0.2073   -1.3686    4.9337 H   0  0  0  0  0  0  0  0  0  0  0  0
   -1.4515   -1.4198    4.3275 H   0  0  0  0  0  0  0  0  0  0  0  0
   -0.7751   -2.8281    5.1591 H   0  0  0  0  0  0  0  0  0  0  0  0
   -0.8366   -3.2039    2.7000 H   0  0  0  0  0  0  0  0  0  0  0  0
    1.8826   -2.7843    3.7051 H   0  0  0  0  0  0  0  0  0  0  0  0
    1.4746   -3.7068    2.4309 H   0  0  0  0  0  0  0  0  0  0  0  0
    1.4294    1.8478    2.0619 H   0  0  0  0  0  0  0  0  0  0  0  0
    1.9526    3.6772    0.4960 H   0  0  0  0  0  0  0  0  0  0  0  0
    2.7881    3.6073   -2.4985 H   0  0  0  0  0  0  0  0  0  0  0  0
    1.5339    4.6475   -1.7773 H   0  0  0  0  0  0  0  0  0  0  0  0
    1.1261    3.6018   -3.1372 H   0  0  0  0  0  0  0  0  0  0  0  0
    0.7769    1.1732   -2.8135 H   0  0  0  0  0  0  0  0  0  0  0  0
    0.2551   -0.6521   -1.2431 H   0  0  0  0  0  0  0  0  0  0  0  0
  1  2  1  0
  2  3  1  0
  2  4  1  0
  4  5  3  0
  5  6  1  0
  6  7  2  0
  7  8  1  0
  8  9  2  0
  9 10  1  0
  9 11  1  0
 11 12  2  0
 12  6  1  0
  1 13  1  0
  1 14  1  0
  1 15  1  0
  2 16  1  6
  3 17  1  0
  3 18  1  0
  7 19  1  0
  8 20  1  0
 10 21  1  0
 10 22  1  0
 10 23  1  0
 11 24  1  0
 12 25  1  0
M  END
