
     RDKit          3D

 25 25  0  0  0  0  0  0  0  0999 V2000
    0.6936   -0.5571    2.1272 N   0  0  0  0  0  0  0  0  0  0  0  0
    1.2817    0.8140    2.0971 C   0  0  1  0  0  0  0  0  0  0  0  0
    1.5444    1.2393    0.6485 C   0  0  0  0  0  0  0  0  0  0  0  0
    0.3557    1.8699   -0.0476 C   0  0  0  0  0  0  0  0  0  0  0  0
    0.2020    3.0909    0.0075 O   0  0  0  0  0  0  0  0  0  0  0  0
   -0.6289    1.0392   -0.8069 C   0  0  0  0  0  0  0  0  0  0  0  0
   -0.4809   -0.3380   -1.0021 C   0  0  0  0  0  0  0  0  0  0  0  0
   -1.4356   -1.0537   -1.7324 C   0  0  0  0  0  0  0  0  0  0  0  0
   -2.5411   -0.4004   -2.2739 C   0  0  0  0  0  0  0  0  0  0  0  0
   -2.6973    0.9704   -2.0865 C   0  0  0  0  0  0  0  0  0  0  0  0
   -1.7459    1.6866   -1.3571 C   0  0  0  0  0  0  0  0  0  0  0  0
    0.5295    1.8932    2.9256 C   0  0  0  0  0  0  0  0  0  0  0  0
    1.1868    3.0710    2.9157 F   0  0  0  0  0  0  0  0  0  0  0  0
   -0.7349    2.0902    2.5054 F   0  0  0  0  0  0  0  0  0  0  0  0
    0.4585    1.4879    4.2215 F   0  0  0  0  0  0  0  0  0  0  0  0
    0.3580   -0.7486    3.0761 H   0  0  0  0  0  0  0  0  0  0  0  0
    1.4259   -1.2450    1.9487 H   0  0  0  0  0  0  0  0  0  0  0  0
    2.2632    0.7093    2.5784 H   0  0  0  0  0  0  0  0  0  0  0  0
    1.9661    0.4267    0.0476 H   0  0  0  0  0  0  0  0  0  0  0  0
    2.3351    2.0034    0.6495 H   0  0  0  0  0  0  0  0  0  0  0  0
    0.3599   -0.8875   -0.5939 H   0  0  0  0  0  0  0  0  0  0  0  0
   -1.3171   -2.1251   -1.8753 H   0  0  0  0  0  0  0  0  0  0  0  0
   -3.2822   -0.9599   -2.8392 H   0  0  0  0  0  0  0  0  0  0  0  0
   -3.5589    1.4847   -2.5047 H   0  0  0  0  0  0  0  0  0  0  0  0
   -1.8833    2.7578   -1.2173 H   0  0  0  0  0  0  0  0  0  0  0  0
  1  2  1  0
  2  3  1  0
  3  4  1  0
  4  5  2  0
  4  6  1  0
  6  7  2  0
  7  8  1  0
  8  9  2  0
  9 10  1  0
 10 11  2  0
  2 12  1  0
 12 13  1  0
 12 14  1  0
 12 15  1  0
 11  6  1  0
  1 16  1  0
  1 17  1  0
  2 18  1  1
  3 19  1  0
  3 20  1  0
  7 21  1  0
  8 22  1  0
  9 23  1  0
 10 24  1  0
 11 25  1  0
M  END
