
     RDKit          3D

 32 32  0  0  0  0  0  0  0  0999 V2000
   -1.3570   -1.6411   -1.8512 C   0  0  0  0  0  0  0  0  0  0  0  0
   -0.9487   -0.1957   -1.5010 C   0  0  0  0  0  0  0  0  0  0  0  0
   -1.5377    0.7426   -2.5841 C   0  0  0  0  0  0  0  0  0  0  0  0
   -1.6285    0.1869   -0.1713 C   0  0  0  0  0  0  0  0  0  0  0  0
    0.6161   -0.0169   -1.4226 C   0  0  2  0  0  0  0  0  0  0  0  0
    1.2415   -0.3182   -2.7297 N   0  0  0  0  0  0  0  0  0  0  0  0
    1.3554   -0.8747   -0.3542 C   0  0  0  0  0  0  0  0  0  0  0  0
    1.2703   -0.4003    1.0798 C   0  0  0  0  0  0  0  0  0  0  0  0
    1.6688    0.8945    1.4413 C   0  0  0  0  0  0  0  0  0  0  0  0
    1.6072    1.3116    2.7724 C   0  0  0  0  0  0  0  0  0  0  0  0
    1.1600    0.4360    3.7592 C   0  0  0  0  0  0  0  0  0  0  0  0
    0.7810   -0.8599    3.4171 C   0  0  0  0  0  0  0  0  0  0  0  0
    0.8423   -1.2782    2.0867 C   0  0  0  0  0  0  0  0  0  0  0  0
   -1.0498   -2.3493   -1.0753 H   0  0  0  0  0  0  0  0  0  0  0  0
   -0.9198   -1.9683   -2.8003 H   0  0  0  0  0  0  0  0  0  0  0  0
   -2.4458   -1.7263   -1.9491 H   0  0  0  0  0  0  0  0  0  0  0  0
   -1.2292    1.7803   -2.4153 H   0  0  0  0  0  0  0  0  0  0  0  0
   -1.2266    0.4535   -3.5932 H   0  0  0  0  0  0  0  0  0  0  0  0
   -2.6339    0.7185   -2.5760 H   0  0  0  0  0  0  0  0  0  0  0  0
   -1.2954    1.1705    0.1770 H   0  0  0  0  0  0  0  0  0  0  0  0
   -2.7186    0.2317   -0.2828 H   0  0  0  0  0  0  0  0  0  0  0  0
   -1.4335   -0.5479    0.6132 H   0  0  0  0  0  0  0  0  0  0  0  0
    0.8202    1.0429   -1.2260 H   0  0  0  0  0  0  0  0  0  0  0  0
    2.2470   -0.1567   -2.6732 H   0  0  0  0  0  0  0  0  0  0  0  0
    0.9001    0.3344   -3.4334 H   0  0  0  0  0  0  0  0  0  0  0  0
    2.4313   -0.8924   -0.5830 H   0  0  0  0  0  0  0  0  0  0  0  0
    1.0363   -1.9210   -0.4274 H   0  0  0  0  0  0  0  0  0  0  0  0
    2.0389    1.5893    0.6914 H   0  0  0  0  0  0  0  0  0  0  0  0
    1.9142    2.3193    3.0400 H   0  0  0  0  0  0  0  0  0  0  0  0
    1.1135    0.7609    4.7950 H   0  0  0  0  0  0  0  0  0  0  0  0
    0.4396   -1.5474    4.1864 H   0  0  0  0  0  0  0  0  0  0  0  0
    0.5462   -2.2954    1.8394 H   0  0  0  0  0  0  0  0  0  0  0  0
  1  2  1  0
  2  3  1  0
  2  4  1  0
  2  5  1  0
  5  6  1  0
  5  7  1  0
  7  8  1  0
  8  9  2  0
  9 10  1  0
 10 11  2  0
 11 12  1  0
 12 13  2  0
 13  8  1  0
  1 14  1  0
  1 15  1  0
  1 16  1  0
  3 17  1  0
  3 18  1  0
  3 19  1  0
  4 20  1  0
  4 21  1  0
  4 22  1  0
  5 23  1  1
  6 24  1  0
  6 25  1  0
  7 26  1  0
  7 27  1  0
  9 28  1  0
 10 29  1  0
 11 30  1  0
 12 31  1  0
 13 32  1  0
M  END
