
     RDKit          3D

 14 13  0  0  0  0  0  0  0  0999 V2000
    2.0081    0.1706   -1.3865 C   0  0  0  0  0  0  0  0  0  0  0  0
    0.6773    0.8068   -1.7954 C   0  0  1  0  0  0  0  0  0  0  0  0
    0.5625    0.7747   -3.2615 N   0  0  0  0  0  0  0  0  0  0  0  0
   -0.5319    0.0991   -1.1604 C   0  0  0  0  0  0  0  0  0  0  0  0
   -0.5634    0.2812    0.2972 C   0  0  0  0  0  0  0  0  0  0  0  0
   -0.5797    0.4200    1.4493 N   0  0  0  0  0  0  0  0  0  0  0  0
    2.8496    0.6762   -1.8737 H   0  0  0  0  0  0  0  0  0  0  0  0
    2.0473   -0.8896   -1.6610 H   0  0  0  0  0  0  0  0  0  0  0  0
    2.1676    0.2453   -0.3059 H   0  0  0  0  0  0  0  0  0  0  0  0
    0.6830    1.8591   -1.4854 H   0  0  0  0  0  0  0  0  0  0  0  0
    1.3277    1.3111   -3.6739 H   0  0  0  0  0  0  0  0  0  0  0  0
    0.6825   -0.1788   -3.6056 H   0  0  0  0  0  0  0  0  0  0  0  0
   -1.4601    0.5053   -1.5820 H   0  0  0  0  0  0  0  0  0  0  0  0
   -0.5174   -0.9713   -1.4000 H   0  0  0  0  0  0  0  0  0  0  0  0
  1  2  1  0
  2  3  1  0
  2  4  1  0
  4  5  1  0
  5  6  3  0
  1  7  1  0
  1  8  1  0
  1  9  1  0
  2 10  1  1
  3 11  1  0
  3 12  1  0
  4 13  1  0
  4 14  1  0
M  END
