
     RDKit          3D

 24 24  0  0  0  0  0  0  0  0999 V2000
   -2.6459   -0.4278    0.4966 C   0  0  0  0  0  0  0  0  0  0  0  0
   -1.4081   -0.6800   -0.3637 C   0  0  2  0  0  0  0  0  0  0  0  0
   -1.7999   -0.9811   -1.7395 N   0  0  0  0  0  0  0  0  0  0  0  0
   -0.6132   -1.8348    0.1757 C   0  0  0  0  0  0  0  0  0  0  0  0
    0.6471   -1.8175    0.6423 C   0  0  0  0  0  0  0  0  0  0  0  0
    1.5271   -0.6423    0.6826 C   0  0  0  0  0  0  0  0  0  0  0  0
    1.9986   -0.1097   -0.5274 C   0  0  0  0  0  0  0  0  0  0  0  0
    2.8501    0.9973   -0.5356 C   0  0  0  0  0  0  0  0  0  0  0  0
    3.2452    1.5821    0.6655 C   0  0  0  0  0  0  0  0  0  0  0  0
    2.7895    1.0599    1.8762 C   0  0  0  0  0  0  0  0  0  0  0  0
    1.9361   -0.0485    1.8874 C   0  0  0  0  0  0  0  0  0  0  0  0
    1.4062   -0.6418    3.4240 Cl  0  0  0  0  0  0  0  0  0  0  0  0
   -3.3043   -1.3038    0.5330 H   0  0  0  0  0  0  0  0  0  0  0  0
   -3.2287    0.4138    0.1055 H   0  0  0  0  0  0  0  0  0  0  0  0
   -2.3598   -0.1824    1.5257 H   0  0  0  0  0  0  0  0  0  0  0  0
   -0.8149    0.2393   -0.3770 H   0  0  0  0  0  0  0  0  0  0  0  0
   -2.2832   -0.1729   -2.1283 H   0  0  0  0  0  0  0  0  0  0  0  0
   -2.4841   -1.7355   -1.7395 H   0  0  0  0  0  0  0  0  0  0  0  0
   -1.1350   -2.7900    0.2090 H   0  0  0  0  0  0  0  0  0  0  0  0
    1.0846   -2.7325    1.0364 H   0  0  0  0  0  0  0  0  0  0  0  0
    1.6975   -0.5566   -1.4739 H   0  0  0  0  0  0  0  0  0  0  0  0
    3.2039    1.4005   -1.4814 H   0  0  0  0  0  0  0  0  0  0  0  0
    3.9085    2.4435    0.6595 H   0  0  0  0  0  0  0  0  0  0  0  0
    3.1028    1.5205    2.8097 H   0  0  0  0  0  0  0  0  0  0  0  0
  1  2  1  0
  2  3  1  0
  2  4  1  0
  4  5  2  3
  5  6  1  0
  6  7  2  0
  7  8  1  0
  8  9  2  0
  9 10  1  0
 10 11  2  0
 11 12  1  0
 11  6  1  0
  1 13  1  0
  1 14  1  0
  1 15  1  0
  2 16  1  6
  3 17  1  0
  3 18  1  0
  4 19  1  0
  5 20  1  0
  7 21  1  0
  8 22  1  0
  9 23  1  0
 10 24  1  0
M  END
