
     RDKit          3D

 30 29  0  0  0  0  0  0  0  0999 V2000
   -0.5178   -1.7841    2.6864 C   0  0  0  0  0  0  0  0  0  0  0  0
    0.1023   -0.6805    1.8723 C   0  0  0  0  0  0  0  0  0  0  0  0
    0.7556    0.2182    2.4008 O   0  0  0  0  0  0  0  0  0  0  0  0
   -0.1562   -0.6973    0.3753 C   0  0  0  0  0  0  0  0  0  0  0  0
    1.1071   -0.4704   -0.4774 C   0  0  0  0  0  0  0  0  0  0  0  0
    2.1410   -1.5739   -0.1529 C   0  0  0  0  0  0  0  0  0  0  0  0
    0.7354   -0.6091   -1.9655 C   0  0  0  0  0  0  0  0  0  0  0  0
    1.7820    0.9127   -0.2750 C   0  0  0  0  0  0  0  0  0  0  0  0
    3.0120    1.0123   -0.3768 O   0  0  0  0  0  0  0  0  0  0  0  0
    0.9155    2.1663   -0.0238 C   0  0  2  0  0  0  0  0  0  0  0  0
    0.2153    2.5533   -1.2674 N   0  0  0  0  0  0  0  0  0  0  0  0
    1.8131    3.3067    0.4994 C   0  0  0  0  0  0  0  0  0  0  0  0
    0.8323    4.7789    0.9689 S   0  0  0  0  0  0  0  0  0  0  0  0
   -0.1451   -2.7500    2.3373 H   0  0  0  0  0  0  0  0  0  0  0  0
   -1.6056   -1.7411    2.5921 H   0  0  0  0  0  0  0  0  0  0  0  0
   -0.2484   -1.6627    3.7390 H   0  0  0  0  0  0  0  0  0  0  0  0
   -0.5928   -1.6721    0.1210 H   0  0  0  0  0  0  0  0  0  0  0  0
   -0.9326    0.0469    0.1673 H   0  0  0  0  0  0  0  0  0  0  0  0
    1.6971   -2.5726   -0.2325 H   0  0  0  0  0  0  0  0  0  0  0  0
    2.9932   -1.5385   -0.8425 H   0  0  0  0  0  0  0  0  0  0  0  0
    2.5447   -1.4620    0.8597 H   0  0  0  0  0  0  0  0  0  0  0  0
   -0.0977    0.0445   -2.2406 H   0  0  0  0  0  0  0  0  0  0  0  0
    1.5819   -0.3521   -2.6130 H   0  0  0  0  0  0  0  0  0  0  0  0
    0.4318   -1.6351   -2.2038 H   0  0  0  0  0  0  0  0  0  0  0  0
    0.1715    1.9487    0.7459 H   0  0  0  0  0  0  0  0  0  0  0  0
   -0.0175    3.5485   -1.2026 H   0  0  0  0  0  0  0  0  0  0  0  0
   -0.6778    2.0685   -1.3284 H   0  0  0  0  0  0  0  0  0  0  0  0
    2.3773    2.9820    1.3804 H   0  0  0  0  0  0  0  0  0  0  0  0
    2.5383    3.6152   -0.2623 H   0  0  0  0  0  0  0  0  0  0  0  0
    0.2719    4.2400    2.0621 H   0  0  0  0  0  0  0  0  0  0  0  0
  1  2  1  0
  2  3  2  0
  2  4  1  0
  4  5  1  0
  5  6  1  0
  5  7  1  0
  5  8  1  0
  8  9  2  0
  8 10  1  0
 10 11  1  0
 10 12  1  0
 12 13  1  0
  1 14  1  0
  1 15  1  0
  1 16  1  0
  4 17  1  0
  4 18  1  0
  6 19  1  0
  6 20  1  0
  6 21  1  0
  7 22  1  0
  7 23  1  0
  7 24  1  0
 10 25  1  1
 11 26  1  0
 11 27  1  0
 12 28  1  0
 12 29  1  0
 13 30  1  0
M  END
