
     RDKit          3D

 18 17  0  0  0  0  0  0  0  0999 V2000
   -0.8862    2.3028   -1.4661 N   0  0  0  0  0  0  0  0  0  0  0  0
    0.0167    1.1374   -1.4616 C   0  0  1  0  0  0  0  0  0  0  0  0
    0.6480    0.8994   -0.0808 C   0  0  0  0  0  0  0  0  0  0  0  0
   -0.1885    0.1551    0.9682 C   0  0  0  0  0  0  0  0  0  0  0  0
   -1.7916    0.9047    1.3711 S   0  0  0  0  0  0  0  0  0  0  0  0
   -0.7171   -0.1151   -1.9773 C   0  0  0  0  0  0  0  0  0  0  0  0
    0.0834   -1.1631   -2.3318 N   0  0  0  0  0  0  0  0  0  0  0  0
   -1.9390   -0.2066   -2.0549 O   0  0  0  0  0  0  0  0  0  0  0  0
   -1.5541    2.1989   -0.6971 H   0  0  0  0  0  0  0  0  0  0  0  0
   -1.4671    2.2570   -2.3069 H   0  0  0  0  0  0  0  0  0  0  0  0
    0.8154    1.3651   -2.1781 H   0  0  0  0  0  0  0  0  0  0  0  0
    0.9826    1.8587    0.3372 H   0  0  0  0  0  0  0  0  0  0  0  0
    1.5667    0.3148   -0.2275 H   0  0  0  0  0  0  0  0  0  0  0  0
   -0.3648   -0.8793    0.6561 H   0  0  0  0  0  0  0  0  0  0  0  0
    0.3887    0.1069    1.8981 H   0  0  0  0  0  0  0  0  0  0  0  0
   -2.4575    0.4194    0.3073 H   0  0  0  0  0  0  0  0  0  0  0  0
    1.0573   -1.0222   -2.5656 H   0  0  0  0  0  0  0  0  0  0  0  0
   -0.3856   -1.9494   -2.7657 H   0  0  0  0  0  0  0  0  0  0  0  0
  1  2  1  0
  2  3  1  0
  3  4  1  0
  4  5  1  0
  2  6  1  0
  6  7  1  0
  6  8  2  0
  1  9  1  0
  1 10  1  0
  2 11  1  6
  3 12  1  0
  3 13  1  0
  4 14  1  0
  4 15  1  0
  5 16  1  0
  7 17  1  0
  7 18  1  0
M  END
