
     RDKit          3D

 28 28  0  0  0  0  0  0  0  0999 V2000
    0.0414   -1.1270    1.3758 N   0  0  0  0  0  0  0  0  0  0  0  0
    0.8099   -0.6917    0.1944 C   0  0  1  0  0  0  0  0  0  0  0  0
    0.4325   -1.4679   -1.0835 C   0  0  0  0  0  0  0  0  0  0  0  0
   -0.9398   -1.1558   -1.6391 C   0  0  0  0  0  0  0  0  0  0  0  0
   -1.0841   -0.2430   -2.6944 C   0  0  0  0  0  0  0  0  0  0  0  0
   -2.3497    0.0703   -3.1918 C   0  0  0  0  0  0  0  0  0  0  0  0
   -3.4826   -0.5253   -2.6417 C   0  0  0  0  0  0  0  0  0  0  0  0
   -3.3510   -1.4355   -1.5949 C   0  0  0  0  0  0  0  0  0  0  0  0
   -2.0861   -1.7501   -1.0959 C   0  0  0  0  0  0  0  0  0  0  0  0
    0.6809    0.8163   -0.0522 C   0  0  0  0  0  0  0  0  0  0  0  0
    1.5182    1.4050   -0.7442 O   0  0  0  0  0  0  0  0  0  0  0  0
   -0.4986    1.5515    0.5022 C   0  0  0  0  0  0  0  0  0  0  0  0
   -0.0391    2.2226    2.0666 S   0  0  0  0  0  6  0  0  0  0  0  0
   -1.4144    2.6154    2.7701 F   0  0  0  0  0  0  0  0  0  0  0  0
    0.6456    3.4837    1.8699 O   0  0  0  0  0  0  0  0  0  0  0  0
    0.5223    1.1835    2.9107 O   0  0  0  0  0  0  0  0  0  0  0  0
    0.4408   -0.6884    2.2190 H   0  0  0  0  0  0  0  0  0  0  0  0
    0.1846   -2.1287    1.5159 H   0  0  0  0  0  0  0  0  0  0  0  0
    1.8663   -0.8855    0.4183 H   0  0  0  0  0  0  0  0  0  0  0  0
    0.5049   -2.5485   -0.9012 H   0  0  0  0  0  0  0  0  0  0  0  0
    1.1807   -1.2582   -1.8601 H   0  0  0  0  0  0  0  0  0  0  0  0
   -0.2101    0.2327   -3.1370 H   0  0  0  0  0  0  0  0  0  0  0  0
   -2.4508    0.7765   -4.0121 H   0  0  0  0  0  0  0  0  0  0  0  0
   -4.4679   -0.2841   -3.0322 H   0  0  0  0  0  0  0  0  0  0  0  0
   -4.2343   -1.9030   -1.1673 H   0  0  0  0  0  0  0  0  0  0  0  0
   -2.0021   -2.4595   -0.2754 H   0  0  0  0  0  0  0  0  0  0  0  0
   -0.7819    2.3711   -0.1630 H   0  0  0  0  0  0  0  0  0  0  0  0
   -1.3630    0.8992    0.6334 H   0  0  0  0  0  0  0  0  0  0  0  0
  1  2  1  0
  2  3  1  0
  3  4  1  0
  4  5  2  0
  5  6  1  0
  6  7  2  0
  7  8  1  0
  8  9  2  0
  2 10  1  0
 10 11  2  0
 10 12  1  0
 12 13  1  0
 13 14  1  0
 13 15  2  0
 13 16  2  0
  9  4  1  0
  1 17  1  0
  1 18  1  0
  2 19  1  1
  3 20  1  0
  3 21  1  0
  5 22  1  0
  6 23  1  0
  7 24  1  0
  8 25  1  0
  9 26  1  0
 12 27  1  0
 12 28  1  0
M  END
