
     RDKit          3D

 29 29  0  0  0  0  0  0  0  0999 V2000
    2.3703    0.1382   -1.3200 C   0  0  2  0  0  0  0  0  0  0  0  0
    3.7880    0.3503   -0.7955 C   0  0  0  0  0  0  0  0  0  0  0  0
    1.4958    1.1780   -0.7845 N   0  0  0  0  0  0  0  0  0  0  0  0
    1.8290   -1.2768   -1.0438 C   0  0  0  0  0  0  0  0  0  0  0  0
    1.8664   -1.7918    0.4032 C   0  0  0  0  0  0  0  0  0  0  0  0
    0.9261   -1.1041    1.4003 C   0  0  0  0  0  0  0  0  0  0  0  0
   -0.5446   -1.2061    1.0679 C   0  0  0  0  0  0  0  0  0  0  0  0
   -1.3206   -0.0452    0.9448 C   0  0  0  0  0  0  0  0  0  0  0  0
   -2.6826   -0.1267    0.6495 C   0  0  0  0  0  0  0  0  0  0  0  0
   -3.2868   -1.3707    0.4828 C   0  0  0  0  0  0  0  0  0  0  0  0
   -2.5305   -2.5330    0.6169 C   0  0  0  0  0  0  0  0  0  0  0  0
   -1.1682   -2.4519    0.9124 C   0  0  0  0  0  0  0  0  0  0  0  0
    2.3952    0.2640   -2.4099 H   0  0  0  0  0  0  0  0  0  0  0  0
    3.8260    0.3476    0.2991 H   0  0  0  0  0  0  0  0  0  0  0  0
    4.4583   -0.4345   -1.1618 H   0  0  0  0  0  0  0  0  0  0  0  0
    4.1881    1.3122   -1.1359 H   0  0  0  0  0  0  0  0  0  0  0  0
    1.8012    2.0905   -1.1201 H   0  0  0  0  0  0  0  0  0  0  0  0
    0.5503    1.0399   -1.1430 H   0  0  0  0  0  0  0  0  0  0  0  0
    0.8084   -1.3597   -1.4386 H   0  0  0  0  0  0  0  0  0  0  0  0
    2.4276   -1.9749   -1.6455 H   0  0  0  0  0  0  0  0  0  0  0  0
    1.6352   -2.8645    0.3778 H   0  0  0  0  0  0  0  0  0  0  0  0
    2.8907   -1.7283    0.7886 H   0  0  0  0  0  0  0  0  0  0  0  0
    1.2211   -0.0572    1.5295 H   0  0  0  0  0  0  0  0  0  0  0  0
    1.0692   -1.5649    2.3869 H   0  0  0  0  0  0  0  0  0  0  0  0
   -0.8643    0.9334    1.0798 H   0  0  0  0  0  0  0  0  0  0  0  0
   -3.2716    0.7815    0.5547 H   0  0  0  0  0  0  0  0  0  0  0  0
   -4.3473   -1.4346    0.2555 H   0  0  0  0  0  0  0  0  0  0  0  0
   -3.0018   -3.5047    0.4962 H   0  0  0  0  0  0  0  0  0  0  0  0
   -0.5979   -3.3706    1.0255 H   0  0  0  0  0  0  0  0  0  0  0  0
  1  2  1  0
  1  3  1  0
  1  4  1  0
  4  5  1  0
  5  6  1  0
  6  7  1  0
  7  8  2  0
  8  9  1  0
  9 10  2  0
 10 11  1  0
 11 12  2  0
 12  7  1  0
  1 13  1  6
  2 14  1  0
  2 15  1  0
  2 16  1  0
  3 17  1  0
  3 18  1  0
  4 19  1  0
  4 20  1  0
  5 21  1  0
  5 22  1  0
  6 23  1  0
  6 24  1  0
  8 25  1  0
  9 26  1  0
 10 27  1  0
 11 28  1  0
 12 29  1  0
M  END
