
     RDKit          3D

 38 40  0  0  0  0  0  0  0  0999 V2000
   -1.2658   -2.2560   -1.7243 C   0  0  1  0  0  0  0  0  0  0  0  0
   -0.8593   -3.2735   -0.7295 N   0  0  0  0  0  0  0  0  0  0  0  0
   -1.8180   -0.9546   -1.1121 C   0  0  0  0  0  0  0  0  0  0  0  0
   -0.9884   -0.1350   -0.0784 C   0  0  0  0  0  0  0  0  0  0  0  0
   -0.9108   -0.8293    1.3078 C   0  0  0  0  0  0  0  0  0  0  0  0
   -0.1739    0.0561    2.3307 C   0  0  0  0  0  0  0  0  0  0  0  0
   -0.9226    1.3868    2.4910 C   0  0  0  0  0  0  0  0  0  0  0  0
   -0.9858    2.1152    1.1411 C   0  0  0  0  0  0  0  0  0  0  0  0
    0.4391    2.3840    0.6350 C   0  0  0  0  0  0  0  0  0  0  0  0
    1.1938    1.0568    0.4683 C   0  0  0  0  0  0  0  0  0  0  0  0
    1.2508    0.3332    1.8236 C   0  0  0  0  0  0  0  0  0  0  0  0
    0.4537    0.1689   -0.5502 C   0  0  0  0  0  0  0  0  0  0  0  0
   -1.7206    1.2276    0.1254 C   0  0  0  0  0  0  0  0  0  0  0  0
   -0.1499   -2.0046   -2.7608 C   0  0  0  0  0  0  0  0  0  0  0  0
    0.9328   -2.8365   -2.6557 N   0  0  0  0  0  0  0  0  0  0  0  0
   -0.2127   -1.1618   -3.6491 O   0  0  0  0  0  0  0  0  0  0  0  0
   -2.0834   -2.7050   -2.3052 H   0  0  0  0  0  0  0  0  0  0  0  0
   -1.6234   -3.3930   -0.0635 H   0  0  0  0  0  0  0  0  0  0  0  0
   -0.7842   -4.1692   -1.2163 H   0  0  0  0  0  0  0  0  0  0  0  0
   -2.0631   -0.2864   -1.9499 H   0  0  0  0  0  0  0  0  0  0  0  0
   -2.7844   -1.1954   -0.6457 H   0  0  0  0  0  0  0  0  0  0  0  0
   -0.3753   -1.7810    1.2404 H   0  0  0  0  0  0  0  0  0  0  0  0
   -1.9195   -1.0557    1.6756 H   0  0  0  0  0  0  0  0  0  0  0  0
   -0.1274   -0.4591    3.2967 H   0  0  0  0  0  0  0  0  0  0  0  0
   -1.9365    1.2040    2.8675 H   0  0  0  0  0  0  0  0  0  0  0  0
   -0.4159    2.0157    3.2332 H   0  0  0  0  0  0  0  0  0  0  0  0
   -1.5211    3.0641    1.2583 H   0  0  0  0  0  0  0  0  0  0  0  0
    0.4035    2.9182   -0.3224 H   0  0  0  0  0  0  0  0  0  0  0  0
    0.9717    3.0322    1.3416 H   0  0  0  0  0  0  0  0  0  0  0  0
    2.2115    1.2536    0.1127 H   0  0  0  0  0  0  0  0  0  0  0  0
    1.7957    0.9454    2.5527 H   0  0  0  0  0  0  0  0  0  0  0  0
    1.8036   -0.6089    1.7232 H   0  0  0  0  0  0  0  0  0  0  0  0
    1.0216   -0.7599   -0.6707 H   0  0  0  0  0  0  0  0  0  0  0  0
    0.4362    0.6699   -1.5260 H   0  0  0  0  0  0  0  0  0  0  0  0
   -2.7491    1.0540    0.4687 H   0  0  0  0  0  0  0  0  0  0  0  0
   -1.7958    1.7614   -0.8312 H   0  0  0  0  0  0  0  0  0  0  0  0
    1.1027   -3.2079   -1.7261 H   0  0  0  0  0  0  0  0  0  0  0  0
    1.7359   -2.5829   -3.2148 H   0  0  0  0  0  0  0  0  0  0  0  0
  1  2  1  0
  1  3  1  0
  3  4  1  0
  4  5  1  0
  5  6  1  0
  6  7  1  0
  7  8  1  0
  8  9  1  0
  9 10  1  0
 10 11  1  0
 10 12  1  0
  8 13  1  0
  1 14  1  0
 14 15  1  0
 14 16  2  0
 12  4  1  0
 13  4  1  0
 11  6  1  0
  1 17  1  6
  2 18  1  0
  2 19  1  0
  3 20  1  0
  3 21  1  0
  5 22  1  0
  5 23  1  0
  6 24  1  0
  7 25  1  0
  7 26  1  0
  8 27  1  0
  9 28  1  0
  9 29  1  0
 10 30  1  0
 11 31  1  0
 11 32  1  0
 12 33  1  0
 12 34  1  0
 13 35  1  0
 13 36  1  0
 15 37  1  0
 15 38  1  0
M  END
