
     RDKit          3D

 23 23  0  0  0  0  0  0  0  0999 V2000
    1.7284    0.0052    2.0941 C   0  0  2  0  0  0  0  0  0  0  0  0
    1.2753    1.4311    1.8045 C   0  0  0  0  0  0  0  0  0  0  0  0
    3.2098   -0.0402    2.0475 N   0  0  0  0  0  0  0  0  0  0  0  0
    1.1357   -0.9734    1.0651 C   0  0  0  0  0  0  0  0  0  0  0  0
    1.7683   -1.4212    0.1124 O   0  0  0  0  0  0  0  0  0  0  0  0
   -0.5290   -1.4672    1.3816 S   0  0  0  0  0  0  0  0  0  0  0  0
   -1.3715   -0.6432    0.0446 C   0  0  0  0  0  0  0  0  0  0  0  0
   -1.0733   -0.9253   -1.2923 C   0  0  0  0  0  0  0  0  0  0  0  0
   -1.7532   -0.2693   -2.3209 C   0  0  0  0  0  0  0  0  0  0  0  0
   -2.7416    0.6657   -2.0192 C   0  0  0  0  0  0  0  0  0  0  0  0
   -3.0544    0.9424   -0.6897 C   0  0  0  0  0  0  0  0  0  0  0  0
   -2.3744    0.2871    0.3394 C   0  0  0  0  0  0  0  0  0  0  0  0
    1.4210   -0.2943    3.1020 H   0  0  0  0  0  0  0  0  0  0  0  0
    1.5197    1.7299    0.7785 H   0  0  0  0  0  0  0  0  0  0  0  0
    0.1919    1.5323    1.9249 H   0  0  0  0  0  0  0  0  0  0  0  0
    1.7483    2.1428    2.4901 H   0  0  0  0  0  0  0  0  0  0  0  0
    3.5094   -1.0047    2.2046 H   0  0  0  0  0  0  0  0  0  0  0  0
    3.5002    0.1521    1.0842 H   0  0  0  0  0  0  0  0  0  0  0  0
   -0.3099   -1.6576   -1.5484 H   0  0  0  0  0  0  0  0  0  0  0  0
   -1.5117   -0.4918   -3.3573 H   0  0  0  0  0  0  0  0  0  0  0  0
   -3.2715    1.1743   -2.8208 H   0  0  0  0  0  0  0  0  0  0  0  0
   -3.8309    1.6658   -0.4536 H   0  0  0  0  0  0  0  0  0  0  0  0
   -2.6376    0.5105    1.3707 H   0  0  0  0  0  0  0  0  0  0  0  0
  1  2  1  0
  1  3  1  0
  1  4  1  0
  4  5  2  0
  4  6  1  0
  6  7  1  0
  7  8  2  0
  8  9  1  0
  9 10  2  0
 10 11  1  0
 11 12  2  0
 12  7  1  0
  1 13  1  1
  2 14  1  0
  2 15  1  0
  2 16  1  0
  3 17  1  0
  3 18  1  0
  8 19  1  0
  9 20  1  0
 10 21  1  0
 11 22  1  0
 12 23  1  0
M  END
