
     RDKit          3D

 24 23  0  0  0  0  0  0  0  0999 V2000
    0.2902   -2.8027   -2.5359 C   0  0  0  0  0  0  0  0  0  0  0  0
   -0.7022   -3.0567   -1.4117 C   0  0  0  0  0  0  0  0  0  0  0  0
   -0.3861   -2.2836   -0.1271 C   0  0  0  0  0  0  0  0  0  0  0  0
   -0.5431   -0.7617   -0.2847 C   0  0  0  0  0  0  0  0  0  0  0  0
   -0.2841    0.0721    0.9953 C   0  0  1  0  0  0  0  0  0  0  0  0
   -0.5346    1.5573    0.6864 C   0  0  0  0  0  0  0  0  0  0  0  0
   -1.1969   -0.3209    2.0713 N   0  0  0  0  0  0  0  0  0  0  0  0
    1.1071   -0.0961    1.4660 C   0  0  0  0  0  0  0  0  0  0  0  0
    2.2361   -0.2322    1.8540 C   0  0  0  0  0  0  0  0  0  0  0  0
    0.2345   -1.7715   -2.8964 H   0  0  0  0  0  0  0  0  0  0  0  0
    1.3154   -3.0010   -2.2079 H   0  0  0  0  0  0  0  0  0  0  0  0
    0.0728   -3.4605   -3.3836 H   0  0  0  0  0  0  0  0  0  0  0  0
   -0.6955   -4.1287   -1.1801 H   0  0  0  0  0  0  0  0  0  0  0  0
   -1.7144   -2.8138   -1.7552 H   0  0  0  0  0  0  0  0  0  0  0  0
   -1.0682   -2.6458    0.6505 H   0  0  0  0  0  0  0  0  0  0  0  0
    0.6305   -2.5303    0.1997 H   0  0  0  0  0  0  0  0  0  0  0  0
   -1.5588   -0.5560   -0.6497 H   0  0  0  0  0  0  0  0  0  0  0  0
    0.1418   -0.4147   -1.0693 H   0  0  0  0  0  0  0  0  0  0  0  0
   -1.5666    1.7302    0.3588 H   0  0  0  0  0  0  0  0  0  0  0  0
    0.1304    1.9134   -0.1100 H   0  0  0  0  0  0  0  0  0  0  0  0
   -0.3523    2.1910    1.5635 H   0  0  0  0  0  0  0  0  0  0  0  0
   -1.0201    0.2690    2.8837 H   0  0  0  0  0  0  0  0  0  0  0  0
   -0.9696   -1.2682    2.3694 H   0  0  0  0  0  0  0  0  0  0  0  0
    3.2379   -0.3530    2.1968 H   0  0  0  0  0  0  0  0  0  0  0  0
  1  2  1  0
  2  3  1  0
  3  4  1  0
  4  5  1  0
  5  6  1  0
  5  7  1  0
  5  8  1  1
  8  9  3  0
  1 10  1  0
  1 11  1  0
  1 12  1  0
  2 13  1  0
  2 14  1  0
  3 15  1  0
  3 16  1  0
  4 17  1  0
  4 18  1  0
  6 19  1  0
  6 20  1  0
  6 21  1  0
  7 22  1  0
  7 23  1  0
  9 24  1  0
M  END
