
     RDKit          3D

 25 25  0  0  0  0  0  0  0  0999 V2000
   -0.0496   -0.9218   -1.4394 C   0  0  0  0  0  0  0  0  0  0  0  0
    0.7986   -1.4190   -0.2608 C   0  0  1  0  0  0  0  0  0  0  0  0
    2.1983   -1.0455   -0.5378 N   0  0  0  0  0  0  0  0  0  0  0  0
    0.3803   -0.7609    1.0844 C   0  0  0  0  0  0  0  0  0  0  0  0
   -1.0674   -0.9329    1.4985 C   0  0  0  0  0  0  0  0  0  0  0  0
   -2.0178    0.0491    1.1837 C   0  0  0  0  0  0  0  0  0  0  0  0
   -3.3525   -0.1085    1.5605 C   0  0  0  0  0  0  0  0  0  0  0  0
   -3.7510   -1.2467    2.2581 C   0  0  0  0  0  0  0  0  0  0  0  0
   -2.8150   -2.2268    2.5814 C   0  0  0  0  0  0  0  0  0  0  0  0
   -1.4798   -2.0706    2.2055 C   0  0  0  0  0  0  0  0  0  0  0  0
    0.7433   -2.8961   -0.1866 C   0  0  0  0  0  0  0  0  0  0  0  0
    0.7074   -4.0962   -0.1365 C   0  0  0  0  0  0  0  0  0  0  0  0
    0.3157   -1.3197   -2.3950 H   0  0  0  0  0  0  0  0  0  0  0  0
   -1.0939   -1.2428   -1.3513 H   0  0  0  0  0  0  0  0  0  0  0  0
   -0.0357    0.1721   -1.5091 H   0  0  0  0  0  0  0  0  0  0  0  0
    2.7916   -1.4355    0.1938 H   0  0  0  0  0  0  0  0  0  0  0  0
    2.4916   -1.4991   -1.4026 H   0  0  0  0  0  0  0  0  0  0  0  0
    1.0115   -1.1423    1.9007 H   0  0  0  0  0  0  0  0  0  0  0  0
    0.5931    0.3174    1.0434 H   0  0  0  0  0  0  0  0  0  0  0  0
   -1.7238    0.9449    0.6409 H   0  0  0  0  0  0  0  0  0  0  0  0
   -4.0810    0.6580    1.3100 H   0  0  0  0  0  0  0  0  0  0  0  0
   -4.7901   -1.3689    2.5515 H   0  0  0  0  0  0  0  0  0  0  0  0
   -3.1240   -3.1139    3.1279 H   0  0  0  0  0  0  0  0  0  0  0  0
   -0.7624   -2.8441    2.4700 H   0  0  0  0  0  0  0  0  0  0  0  0
    0.6693   -5.1603   -0.0946 H   0  0  0  0  0  0  0  0  0  0  0  0
  1  2  1  0
  2  3  1  0
  2  4  1  0
  4  5  1  0
  5  6  2  0
  6  7  1  0
  7  8  2  0
  8  9  1  0
  9 10  2  0
  2 11  1  1
 11 12  3  0
 10  5  1  0
  1 13  1  0
  1 14  1  0
  1 15  1  0
  3 16  1  0
  3 17  1  0
  4 18  1  0
  4 19  1  0
  6 20  1  0
  7 21  1  0
  8 22  1  0
  9 23  1  0
 10 24  1  0
 12 25  1  0
M  END
