
     RDKit          3D

 28 28  0  0  0  0  0  0  0  0999 V2000
   -1.5201   -1.8651   -1.7717 N   0  0  0  0  0  0  0  0  0  0  0  0
   -0.0735   -1.8806   -1.4339 C   0  0  1  0  0  0  0  0  0  0  0  0
    0.7103   -0.8570   -2.2796 C   0  0  0  0  0  0  0  0  0  0  0  0
    0.4960    0.5924   -1.9093 C   0  0  0  0  0  0  0  0  0  0  0  0
   -0.6252    1.2884   -2.3820 C   0  0  0  0  0  0  0  0  0  0  0  0
   -0.8371    2.6203   -2.0238 C   0  0  0  0  0  0  0  0  0  0  0  0
    0.0721    3.2727   -1.1945 C   0  0  0  0  0  0  0  0  0  0  0  0
    1.1977    2.5963   -0.7297 C   0  0  0  0  0  0  0  0  0  0  0  0
    1.4122    1.2644   -1.0881 C   0  0  0  0  0  0  0  0  0  0  0  0
    0.0993   -1.6887    0.0839 C   0  0  0  0  0  0  0  0  0  0  0  0
   -0.8426   -1.3011    0.7831 O   0  0  0  0  0  0  0  0  0  0  0  0
    1.4328   -2.1208    0.6554 C   0  0  0  0  0  0  0  0  0  0  0  0
    1.5107   -3.4868    0.6958 F   0  0  0  0  0  0  0  0  0  0  0  0
    2.4703   -1.7345   -0.1502 F   0  0  0  0  0  0  0  0  0  0  0  0
    1.6248   -1.5362    2.0464 C   0  0  0  0  0  0  0  0  0  0  0  0
    2.8383   -1.8895    2.5501 F   0  0  0  0  0  0  0  0  0  0  0  0
    1.5963   -0.1816    2.0395 F   0  0  0  0  0  0  0  0  0  0  0  0
    0.7034   -1.9673    2.9379 F   0  0  0  0  0  0  0  0  0  0  0  0
   -1.9968   -2.5744   -1.2098 H   0  0  0  0  0  0  0  0  0  0  0  0
   -1.9098   -0.9855   -1.4150 H   0  0  0  0  0  0  0  0  0  0  0  0
    0.2856   -2.8870   -1.6795 H   0  0  0  0  0  0  0  0  0  0  0  0
    1.7831   -1.0790   -2.2278 H   0  0  0  0  0  0  0  0  0  0  0  0
    0.4582   -0.9883   -3.3413 H   0  0  0  0  0  0  0  0  0  0  0  0
   -1.3419    0.7966   -3.0374 H   0  0  0  0  0  0  0  0  0  0  0  0
   -1.7118    3.1492   -2.3934 H   0  0  0  0  0  0  0  0  0  0  0  0
   -0.0937    4.3097   -0.9148 H   0  0  0  0  0  0  0  0  0  0  0  0
    1.9113    3.1085   -0.0890 H   0  0  0  0  0  0  0  0  0  0  0  0
    2.3082    0.7658   -0.7257 H   0  0  0  0  0  0  0  0  0  0  0  0
  1  2  1  0
  2  3  1  0
  3  4  1  0
  4  5  2  0
  5  6  1  0
  6  7  2  0
  7  8  1  0
  8  9  2  0
  2 10  1  0
 10 11  2  0
 10 12  1  0
 12 13  1  0
 12 14  1  0
 12 15  1  0
 15 16  1  0
 15 17  1  0
 15 18  1  0
  9  4  1  0
  1 19  1  0
  1 20  1  0
  2 21  1  6
  3 22  1  0
  3 23  1  0
  5 24  1  0
  6 25  1  0
  7 26  1  0
  8 27  1  0
  9 28  1  0
M  END
