
     RDKit          3D

 23 23  0  0  0  0  0  0  0  0999 V2000
    1.5163   -0.6176   -0.3697 C   0  0  1  0  0  0  0  0  0  0  0  0
    2.9468   -0.7193   -0.7528 N   0  0  0  0  0  0  0  0  0  0  0  0
    0.6806   -0.0316   -1.5212 C   0  0  0  0  0  0  0  0  0  0  0  0
   -0.7578    0.2381   -1.1420 C   0  0  0  0  0  0  0  0  0  0  0  0
   -1.0785    1.2641   -0.2419 C   0  0  0  0  0  0  0  0  0  0  0  0
   -2.4064    1.5031    0.1156 C   0  0  0  0  0  0  0  0  0  0  0  0
   -3.4263    0.7229   -0.4246 C   0  0  0  0  0  0  0  0  0  0  0  0
   -3.1200   -0.2946   -1.3253 C   0  0  0  0  0  0  0  0  0  0  0  0
   -1.7930   -0.5354   -1.6845 C   0  0  0  0  0  0  0  0  0  0  0  0
    1.0130   -1.9786    0.1413 C   0  0  0  0  0  0  0  0  0  0  0  0
    0.8239   -3.2782   -1.0319 S   0  0  0  0  0  0  0  0  0  0  0  0
    0.8241   -2.2116    1.3317 O   0  0  0  0  0  0  0  0  0  0  0  0
    1.4656    0.0674    0.4868 H   0  0  0  0  0  0  0  0  0  0  0  0
    3.4835   -1.0246    0.0616 H   0  0  0  0  0  0  0  0  0  0  0  0
    3.2987    0.2086   -0.9875 H   0  0  0  0  0  0  0  0  0  0  0  0
    1.1193    0.9225   -1.8455 H   0  0  0  0  0  0  0  0  0  0  0  0
    0.7181   -0.6798   -2.4057 H   0  0  0  0  0  0  0  0  0  0  0  0
   -0.2981    1.8885    0.1873 H   0  0  0  0  0  0  0  0  0  0  0  0
   -2.6457    2.2990    0.8162 H   0  0  0  0  0  0  0  0  0  0  0  0
   -4.4600    0.9089   -0.1450 H   0  0  0  0  0  0  0  0  0  0  0  0
   -3.9155   -0.9020   -1.7494 H   0  0  0  0  0  0  0  0  0  0  0  0
   -1.5766   -1.3329   -2.3925 H   0  0  0  0  0  0  0  0  0  0  0  0
    0.4767   -4.1918   -0.1164 H   0  0  0  0  0  0  0  0  0  0  0  0
  1  2  1  0
  1  3  1  0
  3  4  1  0
  4  5  2  0
  5  6  1  0
  6  7  2  0
  7  8  1  0
  8  9  2  0
  1 10  1  0
 10 11  1  0
 10 12  2  0
  9  4  1  0
  1 13  1  1
  2 14  1  0
  2 15  1  0
  3 16  1  0
  3 17  1  0
  5 18  1  0
  6 19  1  0
  7 20  1  0
  8 21  1  0
  9 22  1  0
 11 23  1  0
M  END
