
     RDKit          3D

 35 35  0  0  0  0  0  0  0  0999 V2000
    2.9021   -1.3160    2.9501 C   0  0  0  0  0  0  0  0  0  0  0  0
    1.9107   -1.3290    1.7857 C   0  0  2  0  0  0  0  0  0  0  0  0
    1.9005   -2.6565    1.1691 N   0  0  0  0  0  0  0  0  0  0  0  0
    2.2832   -0.2467    0.7519 C   0  0  0  0  0  0  0  0  0  0  0  0
    1.2986   -0.1125   -0.4425 C   0  0  0  0  0  0  0  0  0  0  0  0
    1.9777    0.7450   -1.5307 C   0  0  0  0  0  0  0  0  0  0  0  0
    1.1191    1.2118   -2.7050 C   0  0  0  0  0  0  0  0  0  0  0  0
    0.5185    0.1182   -3.5828 C   0  0  0  0  0  0  0  0  0  0  0  0
   -0.5385   -0.7999   -2.9667 C   0  0  0  0  0  0  0  0  0  0  0  0
   -1.5546   -0.1187   -2.0504 C   0  0  0  0  0  0  0  0  0  0  0  0
   -1.2746   -0.2731   -0.5530 C   0  0  0  0  0  0  0  0  0  0  0  0
   -0.0575    0.4716    0.0051 C   0  0  0  0  0  0  0  0  0  0  0  0
    2.9012   -0.3396    3.4464 H   0  0  0  0  0  0  0  0  0  0  0  0
    3.9241   -1.5212    2.6120 H   0  0  0  0  0  0  0  0  0  0  0  0
    2.6367   -2.0686    3.7010 H   0  0  0  0  0  0  0  0  0  0  0  0
    0.9121   -1.1349    2.1891 H   0  0  0  0  0  0  0  0  0  0  0  0
    2.8264   -2.8736    0.8018 H   0  0  0  0  0  0  0  0  0  0  0  0
    1.7051   -3.3629    1.8775 H   0  0  0  0  0  0  0  0  0  0  0  0
    3.2874   -0.4670    0.3632 H   0  0  0  0  0  0  0  0  0  0  0  0
    2.3600    0.7244    1.2593 H   0  0  0  0  0  0  0  0  0  0  0  0
    1.1572   -1.1177   -0.8477 H   0  0  0  0  0  0  0  0  0  0  0  0
    2.3951    1.6452   -1.0591 H   0  0  0  0  0  0  0  0  0  0  0  0
    2.8379    0.1895   -1.9273 H   0  0  0  0  0  0  0  0  0  0  0  0
    1.7661    1.8225   -3.3498 H   0  0  0  0  0  0  0  0  0  0  0  0
    0.3405    1.9012   -2.3640 H   0  0  0  0  0  0  0  0  0  0  0  0
    0.0576    0.6175   -4.4458 H   0  0  0  0  0  0  0  0  0  0  0  0
    1.3237   -0.5020   -3.9960 H   0  0  0  0  0  0  0  0  0  0  0  0
   -1.0887   -1.2478   -3.8058 H   0  0  0  0  0  0  0  0  0  0  0  0
   -0.0664   -1.6506   -2.4655 H   0  0  0  0  0  0  0  0  0  0  0  0
   -2.5272   -0.5955   -2.2332 H   0  0  0  0  0  0  0  0  0  0  0  0
   -1.6925    0.9356   -2.3135 H   0  0  0  0  0  0  0  0  0  0  0  0
   -1.1989   -1.3383   -0.3006 H   0  0  0  0  0  0  0  0  0  0  0  0
   -2.1585    0.0983   -0.0177 H   0  0  0  0  0  0  0  0  0  0  0  0
   -0.1306    1.5392   -0.2312 H   0  0  0  0  0  0  0  0  0  0  0  0
   -0.1416    0.4256    1.0969 H   0  0  0  0  0  0  0  0  0  0  0  0
  1  2  1  0
  2  3  1  0
  2  4  1  0
  4  5  1  0
  5  6  1  0
  6  7  1  0
  7  8  1  0
  8  9  1  0
  9 10  1  0
 10 11  1  0
 11 12  1  0
 12  5  1  0
  1 13  1  0
  1 14  1  0
  1 15  1  0
  2 16  1  1
  3 17  1  0
  3 18  1  0
  4 19  1  0
  4 20  1  0
  5 21  1  0
  6 22  1  0
  6 23  1  0
  7 24  1  0
  7 25  1  0
  8 26  1  0
  8 27  1  0
  9 28  1  0
  9 29  1  0
 10 30  1  0
 10 31  1  0
 11 32  1  0
 11 33  1  0
 12 34  1  0
 12 35  1  0
M  END
