
     RDKit          3D

 20 19  0  0  0  0  0  0  0  0999 V2000
   -1.8633   -1.2789   -0.2868 C   0  0  0  0  0  0  0  0  0  0  0  0
   -0.6324   -0.5207    0.2017 C   0  0  0  0  0  0  0  0  0  0  0  0
    0.6993   -0.9452   -0.4554 C   0  0  1  0  0  0  0  0  0  0  0  0
    1.8560   -0.1275    0.1374 C   0  0  0  0  0  0  0  0  0  0  0  0
    0.9767   -2.3739   -0.1699 N   0  0  0  0  0  0  0  0  0  0  0  0
    0.6631   -0.7402   -1.9991 C   0  0  0  0  0  0  0  0  0  0  0  0
    0.4751    0.5316   -2.4534 N   0  0  0  0  0  0  0  0  0  0  0  0
    0.7952   -1.6623   -2.8026 O   0  0  0  0  0  0  0  0  0  0  0  0
   -2.0006   -1.1698   -1.3666 H   0  0  0  0  0  0  0  0  0  0  0  0
   -2.7599   -0.8851    0.2035 H   0  0  0  0  0  0  0  0  0  0  0  0
   -1.8014   -2.3451   -0.0497 H   0  0  0  0  0  0  0  0  0  0  0  0
   -0.5620   -0.6483    1.2902 H   0  0  0  0  0  0  0  0  0  0  0  0
   -0.8064    0.5495    0.0332 H   0  0  0  0  0  0  0  0  0  0  0  0
    2.8062   -0.3632   -0.3568 H   0  0  0  0  0  0  0  0  0  0  0  0
    1.9758   -0.3223    1.2097 H   0  0  0  0  0  0  0  0  0  0  0  0
    1.6896    0.9491    0.0179 H   0  0  0  0  0  0  0  0  0  0  0  0
    1.8658   -2.6141   -0.6161 H   0  0  0  0  0  0  0  0  0  0  0  0
    0.3017   -2.9319   -0.7002 H   0  0  0  0  0  0  0  0  0  0  0  0
    0.2751    1.3167   -1.8508 H   0  0  0  0  0  0  0  0  0  0  0  0
    0.4173    0.6628   -3.4552 H   0  0  0  0  0  0  0  0  0  0  0  0
  1  2  1  0
  2  3  1  0
  3  4  1  0
  3  5  1  6
  3  6  1  0
  6  7  1  0
  6  8  2  0
  1  9  1  0
  1 10  1  0
  1 11  1  0
  2 12  1  0
  2 13  1  0
  4 14  1  0
  4 15  1  0
  4 16  1  0
  5 17  1  0
  5 18  1  0
  7 19  1  0
  7 20  1  0
M  END
