
     RDKit          3D

 16 15  0  0  0  0  0  0  0  0999 V2000
   -0.8415    0.7469   -0.6708 C   0  0  2  0  0  0  0  0  0  0  0  0
    0.4435    1.2358   -1.1977 N   0  0  0  0  0  0  0  0  0  0  0  0
   -0.6119   -0.6507   -0.0641 C   0  0  0  0  0  0  0  0  0  0  0  0
   -1.8247   -1.2029    0.6732 C   0  0  0  0  0  0  0  0  0  0  0  0
   -1.9171    0.7301   -1.7663 C   0  0  0  0  0  0  0  0  0  0  0  0
   -2.3762    2.5397   -2.3436 Br  0  0  0  0  0  0  0  0  0  0  0  0
   -1.1503    1.4309    0.1294 H   0  0  0  0  0  0  0  0  0  0  0  0
    1.1401    1.2526   -0.4537 H   0  0  0  0  0  0  0  0  0  0  0  0
    0.7997    0.6009   -1.9110 H   0  0  0  0  0  0  0  0  0  0  0  0
    0.2199   -0.6040    0.6510 H   0  0  0  0  0  0  0  0  0  0  0  0
   -0.3152   -1.3613   -0.8461 H   0  0  0  0  0  0  0  0  0  0  0  0
   -1.5597   -2.1352    1.1827 H   0  0  0  0  0  0  0  0  0  0  0  0
   -2.6468   -1.4273   -0.0120 H   0  0  0  0  0  0  0  0  0  0  0  0
   -2.1823   -0.4952    1.4276 H   0  0  0  0  0  0  0  0  0  0  0  0
   -1.5958    0.1858   -2.6596 H   0  0  0  0  0  0  0  0  0  0  0  0
   -2.8610    0.3086   -1.4126 H   0  0  0  0  0  0  0  0  0  0  0  0
  1  2  1  0
  1  3  1  0
  3  4  1  0
  1  5  1  0
  5  6  1  0
  1  7  1  1
  2  8  1  0
  2  9  1  0
  3 10  1  0
  3 11  1  0
  4 12  1  0
  4 13  1  0
  4 14  1  0
  5 15  1  0
  5 16  1  0
M  END
