
     RDKit          3D

 29 28  0  0  0  0  0  0  0  0999 V2000
    0.2114   -1.0438   -0.2565 C   0  0  1  0  0  0  0  0  0  0  0  0
    0.5367   -2.3771    0.2629 N   0  0  0  0  0  0  0  0  0  0  0  0
   -0.1479   -1.1226   -1.7539 C   0  0  0  0  0  0  0  0  0  0  0  0
    1.0136   -1.4854   -2.6905 C   0  0  0  0  0  0  0  0  0  0  0  0
    1.3974   -2.9565   -2.6963 C   0  0  0  0  0  0  0  0  0  0  0  0
   -0.9374   -0.4641    0.5988 C   0  0  0  0  0  0  0  0  0  0  0  0
   -1.3420    0.9805    0.2765 C   0  0  0  0  0  0  0  0  0  0  0  0
   -0.2189    1.9620    0.4543 C   0  0  0  0  0  0  0  0  0  0  0  0
    0.2765    2.7190   -0.5367 C   0  0  0  0  0  0  0  0  0  0  0  0
    1.3929    3.6964   -0.3621 C   0  0  0  0  0  0  0  0  0  0  0  0
    1.1033   -0.4184   -0.1378 H   0  0  0  0  0  0  0  0  0  0  0  0
   -0.2784   -2.9847    0.1922 H   0  0  0  0  0  0  0  0  0  0  0  0
    0.7621   -2.3147    1.2548 H   0  0  0  0  0  0  0  0  0  0  0  0
   -0.5050   -0.1400   -2.0820 H   0  0  0  0  0  0  0  0  0  0  0  0
   -0.9837   -1.8166   -1.9108 H   0  0  0  0  0  0  0  0  0  0  0  0
    1.8927   -0.8737   -2.4569 H   0  0  0  0  0  0  0  0  0  0  0  0
    0.7126   -1.2191   -3.7117 H   0  0  0  0  0  0  0  0  0  0  0  0
    2.0876   -3.1574   -3.5225 H   0  0  0  0  0  0  0  0  0  0  0  0
    0.5188   -3.5952   -2.8292 H   0  0  0  0  0  0  0  0  0  0  0  0
    1.9077   -3.2471   -1.7749 H   0  0  0  0  0  0  0  0  0  0  0  0
   -0.6540   -0.5099    1.6598 H   0  0  0  0  0  0  0  0  0  0  0  0
   -1.8280   -1.0983    0.4933 H   0  0  0  0  0  0  0  0  0  0  0  0
   -2.1518    1.2720    0.9572 H   0  0  0  0  0  0  0  0  0  0  0  0
   -1.7659    1.0418   -0.7318 H   0  0  0  0  0  0  0  0  0  0  0  0
    0.1941    2.0501    1.4576 H   0  0  0  0  0  0  0  0  0  0  0  0
   -0.1360    2.6371   -1.5402 H   0  0  0  0  0  0  0  0  0  0  0  0
    1.0540    4.7011   -0.6324 H   0  0  0  0  0  0  0  0  0  0  0  0
    2.2286    3.4273   -1.0152 H   0  0  0  0  0  0  0  0  0  0  0  0
    1.7606    3.7256    0.6684 H   0  0  0  0  0  0  0  0  0  0  0  0
  1  2  1  0
  1  3  1  0
  3  4  1  0
  4  5  1  0
  1  6  1  0
  6  7  1  0
  7  8  1  0
  8  9  2  0
  9 10  1  0
  1 11  1  6
  2 12  1  0
  2 13  1  0
  3 14  1  0
  3 15  1  0
  4 16  1  0
  4 17  1  0
  5 18  1  0
  5 19  1  0
  5 20  1  0
  6 21  1  0
  6 22  1  0
  7 23  1  0
  7 24  1  0
  8 25  1  0
  9 26  1  0
 10 27  1  0
 10 28  1  0
 10 29  1  0
M  END
