
     RDKit          3D

 27 27  0  0  0  0  0  0  0  0999 V2000
   -1.9132   -1.2393    0.6694 C   0  0  2  0  0  0  0  0  0  0  0  0
   -3.0829   -1.2685   -0.2281 N   0  0  0  0  0  0  0  0  0  0  0  0
   -1.6416    0.1984    1.1321 C   0  0  0  0  0  0  0  0  0  0  0  0
   -0.6987    0.2202    2.3138 C   0  0  0  0  0  0  0  0  0  0  0  0
   -1.2756   -0.0332    3.5253 N   0  0  0  0  0  0  0  0  0  0  0  0
    0.5087    0.4064    2.2258 O   0  0  0  0  0  0  0  0  0  0  0  0
   -0.6790   -1.9294    0.0309 C   0  0  0  0  0  0  0  0  0  0  0  0
   -0.0472   -1.2340   -1.1541 C   0  0  0  0  0  0  0  0  0  0  0  0
   -0.6417   -1.2863   -2.4219 C   0  0  0  0  0  0  0  0  0  0  0  0
   -0.0500   -0.6463   -3.5128 C   0  0  0  0  0  0  0  0  0  0  0  0
    1.1441    0.0522   -3.3493 C   0  0  0  0  0  0  0  0  0  0  0  0
    1.7464    0.1114   -2.0948 C   0  0  0  0  0  0  0  0  0  0  0  0
    1.1554   -0.5288   -1.0039 C   0  0  0  0  0  0  0  0  0  0  0  0
   -2.1870   -1.8425    1.5452 H   0  0  0  0  0  0  0  0  0  0  0  0
   -3.9097   -0.9286    0.2598 H   0  0  0  0  0  0  0  0  0  0  0  0
   -3.2804   -2.2305   -0.5011 H   0  0  0  0  0  0  0  0  0  0  0  0
   -2.5765    0.6819    1.4456 H   0  0  0  0  0  0  0  0  0  0  0  0
   -1.2298    0.8262    0.3347 H   0  0  0  0  0  0  0  0  0  0  0  0
   -2.2653    0.1097    3.6727 H   0  0  0  0  0  0  0  0  0  0  0  0
   -0.6693    0.0750    4.3295 H   0  0  0  0  0  0  0  0  0  0  0  0
    0.0842   -2.0760    0.8069 H   0  0  0  0  0  0  0  0  0  0  0  0
   -0.9537   -2.9474   -0.2795 H   0  0  0  0  0  0  0  0  0  0  0  0
   -1.5767   -1.8216   -2.5666 H   0  0  0  0  0  0  0  0  0  0  0  0
   -0.5246   -0.6910   -4.4891 H   0  0  0  0  0  0  0  0  0  0  0  0
    1.6033    0.5523   -4.1973 H   0  0  0  0  0  0  0  0  0  0  0  0
    2.6757    0.6585   -1.9610 H   0  0  0  0  0  0  0  0  0  0  0  0
    1.6391   -0.4656   -0.0305 H   0  0  0  0  0  0  0  0  0  0  0  0
  1  2  1  0
  1  3  1  0
  3  4  1  0
  4  5  1  0
  4  6  2  0
  1  7  1  0
  7  8  1  0
  8  9  2  0
  9 10  1  0
 10 11  2  0
 11 12  1  0
 12 13  2  0
 13  8  1  0
  1 14  1  1
  2 15  1  0
  2 16  1  0
  3 17  1  0
  3 18  1  0
  5 19  1  0
  5 20  1  0
  7 21  1  0
  7 22  1  0
  9 23  1  0
 10 24  1  0
 11 25  1  0
 12 26  1  0
 13 27  1  0
M  END
