
     RDKit          3D

 26 26  0  0  0  0  0  0  0  0999 V2000
    0.2359    3.5005   -0.6536 C   0  0  0  0  0  0  0  0  0  0  0  0
    1.5852    2.9512   -1.0970 C   0  0  2  0  0  0  0  0  0  0  0  0
    2.0010    3.7005   -2.2988 N   0  0  0  0  0  0  0  0  0  0  0  0
    1.5703    1.4390   -1.4237 C   0  0  0  0  0  0  0  0  0  0  0  0
    2.1675    0.9823   -2.4022 O   0  0  0  0  0  0  0  0  0  0  0  0
    0.8942    0.5214   -0.4592 C   0  0  0  0  0  0  0  0  0  0  0  0
    0.7111   -0.7694   -0.7752 C   0  0  0  0  0  0  0  0  0  0  0  0
    0.0402   -1.7371    0.1023 C   0  0  0  0  0  0  0  0  0  0  0  0
    0.2414   -1.7571    1.4889 C   0  0  0  0  0  0  0  0  0  0  0  0
   -0.3974   -2.7114    2.2854 C   0  0  0  0  0  0  0  0  0  0  0  0
   -1.2348   -3.6603    1.7028 C   0  0  0  0  0  0  0  0  0  0  0  0
   -1.4293   -3.6606    0.3234 C   0  0  0  0  0  0  0  0  0  0  0  0
   -0.7901   -2.7075   -0.4733 C   0  0  0  0  0  0  0  0  0  0  0  0
   -0.0593    3.0975    0.3202 H   0  0  0  0  0  0  0  0  0  0  0  0
   -0.5545    3.2477   -1.3696 H   0  0  0  0  0  0  0  0  0  0  0  0
    0.2667    4.5912   -0.5491 H   0  0  0  0  0  0  0  0  0  0  0  0
    2.3370    3.1004   -0.3134 H   0  0  0  0  0  0  0  0  0  0  0  0
    2.6675    3.1179   -2.8169 H   0  0  0  0  0  0  0  0  0  0  0  0
    2.5041    4.5412   -2.0240 H   0  0  0  0  0  0  0  0  0  0  0  0
    0.5531    0.9388    0.4783 H   0  0  0  0  0  0  0  0  0  0  0  0
    1.0419   -1.1522   -1.7398 H   0  0  0  0  0  0  0  0  0  0  0  0
    0.9076   -1.0425    1.9650 H   0  0  0  0  0  0  0  0  0  0  0  0
   -0.2348   -2.7181    3.3601 H   0  0  0  0  0  0  0  0  0  0  0  0
   -1.7299   -4.4037    2.3222 H   0  0  0  0  0  0  0  0  0  0  0  0
   -2.0763   -4.4042   -0.1349 H   0  0  0  0  0  0  0  0  0  0  0  0
   -0.9530   -2.7255   -1.5490 H   0  0  0  0  0  0  0  0  0  0  0  0
  1  2  1  0
  2  3  1  0
  2  4  1  0
  4  5  2  0
  4  6  1  0
  6  7  2  0
  7  8  1  0
  8  9  2  0
  9 10  1  0
 10 11  2  0
 11 12  1  0
 12 13  2  0
 13  8  1  0
  1 14  1  0
  1 15  1  0
  1 16  1  0
  2 17  1  1
  3 18  1  0
  3 19  1  0
  6 20  1  0
  7 21  1  0
  9 22  1  0
 10 23  1  0
 11 24  1  0
 12 25  1  0
 13 26  1  0
M  END
