
     RDKit          3D

 42 42  0  0  0  0  0  0  0  0999 V2000
   -0.9404    4.2233   -2.8142 C   0  0  0  0  0  0  0  0  0  0  0  0
   -0.1906    3.9486   -1.5085 C   0  0  0  0  0  0  0  0  0  0  0  0
    1.0835    3.1522   -1.8024 C   0  0  0  0  0  0  0  0  0  0  0  0
   -1.1152    3.2178   -0.5171 C   0  0  0  0  0  0  0  0  0  0  0  0
   -0.5109    3.0698    0.8525 C   0  0  0  0  0  0  0  0  0  0  0  0
   -0.1068    1.9387    1.4562 C   0  0  0  0  0  0  0  0  0  0  0  0
   -0.1286    0.5358    0.9027 C   0  0  1  0  0  0  0  0  0  0  0  0
    1.2402    0.0328    0.8915 N   0  0  0  0  0  0  0  0  0  0  0  0
   -1.0699   -0.3454    1.7491 C   0  0  0  0  0  0  0  0  0  0  0  0
   -1.2901   -1.8103    1.3022 C   0  0  0  0  0  0  0  0  0  0  0  0
   -0.1201   -2.7547    1.6482 C   0  0  0  0  0  0  0  0  0  0  0  0
    0.5063   -3.4152    0.4243 C   0  0  0  0  0  0  0  0  0  0  0  0
   -0.5272   -4.1494   -0.4280 C   0  0  0  0  0  0  0  0  0  0  0  0
   -1.8551   -3.4028   -0.5659 C   0  0  0  0  0  0  0  0  0  0  0  0
   -1.7447   -1.9365   -0.1609 C   0  0  0  0  0  0  0  0  0  0  0  0
   -0.3072    4.7733   -3.5184 H   0  0  0  0  0  0  0  0  0  0  0  0
   -1.8350    4.8274   -2.6295 H   0  0  0  0  0  0  0  0  0  0  0  0
   -1.2538    3.2911   -3.2967 H   0  0  0  0  0  0  0  0  0  0  0  0
    0.1019    4.9157   -1.0789 H   0  0  0  0  0  0  0  0  0  0  0  0
    1.6934    3.0289   -0.9022 H   0  0  0  0  0  0  0  0  0  0  0  0
    1.7007    3.6690   -2.5453 H   0  0  0  0  0  0  0  0  0  0  0  0
    0.8478    2.1565   -2.1934 H   0  0  0  0  0  0  0  0  0  0  0  0
   -2.0434    3.7925   -0.3998 H   0  0  0  0  0  0  0  0  0  0  0  0
   -1.4193    2.2523   -0.9340 H   0  0  0  0  0  0  0  0  0  0  0  0
   -0.4116    4.0005    1.4112 H   0  0  0  0  0  0  0  0  0  0  0  0
    0.2853    2.0350    2.4688 H   0  0  0  0  0  0  0  0  0  0  0  0
   -0.4811    0.5440   -0.1303 H   0  0  0  0  0  0  0  0  0  0  0  0
    1.6068    0.0067    1.8402 H   0  0  0  0  0  0  0  0  0  0  0  0
    1.8259    0.6822    0.3685 H   0  0  0  0  0  0  0  0  0  0  0  0
   -2.0578    0.1383    1.7592 H   0  0  0  0  0  0  0  0  0  0  0  0
   -0.7372   -0.3479    2.7970 H   0  0  0  0  0  0  0  0  0  0  0  0
   -2.1333   -2.1620    1.9166 H   0  0  0  0  0  0  0  0  0  0  0  0
   -0.5026   -3.5500    2.3027 H   0  0  0  0  0  0  0  0  0  0  0  0
    0.6515   -2.2457    2.2351 H   0  0  0  0  0  0  0  0  0  0  0  0
    1.2877   -4.1174    0.7372 H   0  0  0  0  0  0  0  0  0  0  0  0
    1.0041   -2.6538   -0.1879 H   0  0  0  0  0  0  0  0  0  0  0  0
   -0.7224   -5.1401    0.0008 H   0  0  0  0  0  0  0  0  0  0  0  0
   -0.0998   -4.3291   -1.4219 H   0  0  0  0  0  0  0  0  0  0  0  0
   -2.6100   -3.8928    0.0620 H   0  0  0  0  0  0  0  0  0  0  0  0
   -2.2164   -3.4814   -1.5977 H   0  0  0  0  0  0  0  0  0  0  0  0
   -2.7159   -1.4443   -0.2892 H   0  0  0  0  0  0  0  0  0  0  0  0
   -1.0450   -1.4395   -0.8414 H   0  0  0  0  0  0  0  0  0  0  0  0
  1  2  1  0
  2  3  1  0
  2  4  1  0
  4  5  1  0
  5  6  2  0
  6  7  1  0
  7  8  1  0
  7  9  1  0
  9 10  1  0
 10 11  1  0
 11 12  1  0
 12 13  1  0
 13 14  1  0
 14 15  1  0
 15 10  1  0
  1 16  1  0
  1 17  1  0
  1 18  1  0
  2 19  1  0
  3 20  1  0
  3 21  1  0
  3 22  1  0
  4 23  1  0
  4 24  1  0
  5 25  1  0
  6 26  1  0
  7 27  1  6
  8 28  1  0
  8 29  1  0
  9 30  1  0
  9 31  1  0
 10 32  1  0
 11 33  1  0
 11 34  1  0
 12 35  1  0
 12 36  1  0
 13 37  1  0
 13 38  1  0
 14 39  1  0
 14 40  1  0
 15 41  1  0
 15 42  1  0
M  END
