
     RDKit          3D

 27 27  0  0  0  0  0  0  0  0999 V2000
   -1.0034    0.6230   -2.7045 C   0  0  0  0  0  0  0  0  0  0  0  0
    0.3577    0.6663   -1.9993 C   0  0  1  0  0  0  0  0  0  0  0  0
    1.1649    1.6981   -2.7180 N   0  0  0  0  0  0  0  0  0  0  0  0
    0.2640    1.1056   -0.5157 C   0  0  0  0  0  0  0  0  0  0  0  0
   -0.5506    0.2288    0.4121 C   0  0  0  0  0  0  0  0  0  0  0  0
    0.0678   -0.7829    1.1588 C   0  0  0  0  0  0  0  0  0  0  0  0
   -0.6827   -1.5914    2.0160 C   0  0  0  0  0  0  0  0  0  0  0  0
   -2.0603   -1.3956    2.1434 C   0  0  0  0  0  0  0  0  0  0  0  0
   -2.9251   -2.4376    3.2156 Cl  0  0  0  0  0  0  0  0  0  0  0  0
   -2.6869   -0.3827    1.4114 C   0  0  0  0  0  0  0  0  0  0  0  0
   -4.3847   -0.0798    1.5132 Cl  0  0  0  0  0  0  0  0  0  0  0  0
   -1.9324    0.4260    0.5531 C   0  0  0  0  0  0  0  0  0  0  0  0
    1.1186   -0.6871   -2.1279 C   0  0  0  0  0  0  0  0  0  0  0  0
    0.4107   -1.8375   -1.9494 N   0  0  0  0  0  0  0  0  0  0  0  0
    2.3261   -0.7492   -2.3592 O   0  0  0  0  0  0  0  0  0  0  0  0
   -1.6801   -0.1128   -2.2595 H   0  0  0  0  0  0  0  0  0  0  0  0
   -0.8940    0.3447   -3.7600 H   0  0  0  0  0  0  0  0  0  0  0  0
   -1.5045    1.5973   -2.6647 H   0  0  0  0  0  0  0  0  0  0  0  0
    2.1279    1.6219   -2.3720 H   0  0  0  0  0  0  0  0  0  0  0  0
    1.2491    1.4126   -3.6964 H   0  0  0  0  0  0  0  0  0  0  0  0
   -0.1457    2.1246   -0.4591 H   0  0  0  0  0  0  0  0  0  0  0  0
    1.2771    1.1856   -0.0949 H   0  0  0  0  0  0  0  0  0  0  0  0
    1.1423   -0.9475    1.0820 H   0  0  0  0  0  0  0  0  0  0  0  0
   -0.1837   -2.3708    2.5879 H   0  0  0  0  0  0  0  0  0  0  0  0
   -2.4258    1.2203   -0.0053 H   0  0  0  0  0  0  0  0  0  0  0  0
   -0.4982   -1.8515   -1.5067 H   0  0  0  0  0  0  0  0  0  0  0  0
    0.9404   -2.7001   -1.9546 H   0  0  0  0  0  0  0  0  0  0  0  0
  1  2  1  0
  2  3  1  6
  2  4  1  0
  4  5  1  0
  5  6  2  0
  6  7  1  0
  7  8  2  0
  8  9  1  0
  8 10  1  0
 10 11  1  0
 10 12  2  0
  2 13  1  0
 13 14  1  0
 13 15  2  0
 12  5  1  0
  1 16  1  0
  1 17  1  0
  1 18  1  0
  3 19  1  0
  3 20  1  0
  4 21  1  0
  4 22  1  0
  6 23  1  0
  7 24  1  0
 12 25  1  0
 14 26  1  0
 14 27  1  0
M  END
