
     RDKit          3D

 32 32  0  0  0  0  0  0  0  0999 V2000
   -0.7826   -3.8539   -2.2267 C   0  0  0  0  0  0  0  0  0  0  0  0
   -0.8599   -2.4454   -1.6221 C   0  0  0  0  0  0  0  0  0  0  0  0
   -2.2913   -2.1677   -1.1522 C   0  0  0  0  0  0  0  0  0  0  0  0
    0.2205   -2.2239   -0.5257 C   0  0  2  0  0  0  0  0  0  0  0  0
    0.0807   -3.1501    0.6043 N   0  0  0  0  0  0  0  0  0  0  0  0
    0.2655   -0.7936    0.0516 C   0  0  0  0  0  0  0  0  0  0  0  0
    0.5287    0.2823   -1.0070 C   0  0  0  0  0  0  0  0  0  0  0  0
    0.6968    1.6472   -0.3847 C   0  0  0  0  0  0  0  0  0  0  0  0
    1.9632    2.0956    0.0132 C   0  0  0  0  0  0  0  0  0  0  0  0
    2.1155    3.3515    0.6028 C   0  0  0  0  0  0  0  0  0  0  0  0
    1.0041    4.1678    0.8042 C   0  0  0  0  0  0  0  0  0  0  0  0
   -0.2609    3.7282    0.4187 C   0  0  0  0  0  0  0  0  0  0  0  0
   -0.4154    2.4726   -0.1708 C   0  0  0  0  0  0  0  0  0  0  0  0
   -1.4363   -3.9298   -3.1028 H   0  0  0  0  0  0  0  0  0  0  0  0
   -1.0979   -4.6236   -1.5151 H   0  0  0  0  0  0  0  0  0  0  0  0
    0.2369   -4.0828   -2.5540 H   0  0  0  0  0  0  0  0  0  0  0  0
   -0.6469   -1.7535   -2.4464 H   0  0  0  0  0  0  0  0  0  0  0  0
   -2.4058   -1.1370   -0.8043 H   0  0  0  0  0  0  0  0  0  0  0  0
   -2.5916   -2.8398   -0.3422 H   0  0  0  0  0  0  0  0  0  0  0  0
   -2.9986   -2.3095   -1.9771 H   0  0  0  0  0  0  0  0  0  0  0  0
    1.2000   -2.4243   -0.9792 H   0  0  0  0  0  0  0  0  0  0  0  0
    0.0827   -4.1136    0.2759 H   0  0  0  0  0  0  0  0  0  0  0  0
   -0.8135   -3.0045    1.0702 H   0  0  0  0  0  0  0  0  0  0  0  0
   -0.6638   -0.5646    0.5893 H   0  0  0  0  0  0  0  0  0  0  0  0
    1.0639   -0.7462    0.8061 H   0  0  0  0  0  0  0  0  0  0  0  0
   -0.2945    0.3284   -1.7292 H   0  0  0  0  0  0  0  0  0  0  0  0
    1.4278    0.0332   -1.5845 H   0  0  0  0  0  0  0  0  0  0  0  0
    2.8386    1.4665   -0.1314 H   0  0  0  0  0  0  0  0  0  0  0  0
    3.1017    3.6913    0.9076 H   0  0  0  0  0  0  0  0  0  0  0  0
    1.1236    5.1449    1.2644 H   0  0  0  0  0  0  0  0  0  0  0  0
   -1.1285    4.3626    0.5794 H   0  0  0  0  0  0  0  0  0  0  0  0
   -1.4093    2.1407   -0.4615 H   0  0  0  0  0  0  0  0  0  0  0  0
  1  2  1  0
  2  3  1  0
  2  4  1  0
  4  5  1  0
  4  6  1  0
  6  7  1  0
  7  8  1  0
  8  9  2  0
  9 10  1  0
 10 11  2  0
 11 12  1  0
 12 13  2  0
 13  8  1  0
  1 14  1  0
  1 15  1  0
  1 16  1  0
  2 17  1  0
  3 18  1  0
  3 19  1  0
  3 20  1  0
  4 21  1  6
  5 22  1  0
  5 23  1  0
  6 24  1  0
  6 25  1  0
  7 26  1  0
  7 27  1  0
  9 28  1  0
 10 29  1  0
 11 30  1  0
 12 31  1  0
 13 32  1  0
M  END
