
     RDKit          3D

 16 15  0  0  0  0  0  0  0  0999 V2000
   -1.3493   -1.7757    0.2350 C   0  0  0  0  0  0  0  0  0  0  0  0
   -0.9529   -0.4409   -0.3839 C   0  0  0  0  0  0  0  0  0  0  0  0
   -0.0171   -0.5848   -1.5971 C   0  0  1  0  0  0  0  0  0  0  0  0
   -0.6886   -1.3392   -2.6675 N   0  0  0  0  0  0  0  0  0  0  0  0
    0.4479    0.8085   -2.0654 C   0  0  0  0  0  0  0  0  0  0  0  0
    1.5692    0.6972   -3.4498 Cl  0  0  0  0  0  0  0  0  0  0  0  0
   -1.9395   -2.3821   -0.4587 H   0  0  0  0  0  0  0  0  0  0  0  0
   -0.4645   -2.3489    0.5296 H   0  0  0  0  0  0  0  0  0  0  0  0
   -1.9570   -1.6081    1.1302 H   0  0  0  0  0  0  0  0  0  0  0  0
   -1.8609    0.1067   -0.6667 H   0  0  0  0  0  0  0  0  0  0  0  0
   -0.4525    0.1581    0.3872 H   0  0  0  0  0  0  0  0  0  0  0  0
    0.8646   -1.1605   -1.2886 H   0  0  0  0  0  0  0  0  0  0  0  0
   -0.0586   -1.3892   -3.4721 H   0  0  0  0  0  0  0  0  0  0  0  0
   -1.5070   -0.8270   -2.9957 H   0  0  0  0  0  0  0  0  0  0  0  0
    0.9761    1.3317   -1.2621 H   0  0  0  0  0  0  0  0  0  0  0  0
   -0.3999    1.4260   -2.3799 H   0  0  0  0  0  0  0  0  0  0  0  0
  1  2  1  0
  2  3  1  0
  3  4  1  0
  3  5  1  0
  5  6  1  0
  1  7  1  0
  1  8  1  0
  1  9  1  0
  2 10  1  0
  2 11  1  0
  3 12  1  1
  4 13  1  0
  4 14  1  0
  5 15  1  0
  5 16  1  0
M  END
