
     RDKit          3D

 23 23  0  0  0  0  0  0  0  0999 V2000
    1.1189   -2.8686   -0.5105 C   0  0  2  0  0  0  0  0  0  0  0  0
   -0.3447   -3.2705   -0.3243 C   0  0  0  0  0  0  0  0  0  0  0  0
    1.9410   -4.0847   -0.4449 N   0  0  0  0  0  0  0  0  0  0  0  0
    1.5844   -1.8441    0.5467 C   0  0  0  0  0  0  0  0  0  0  0  0
    0.9119   -0.4960    0.4297 C   0  0  0  0  0  0  0  0  0  0  0  0
   -0.0477   -0.0942    1.3701 C   0  0  0  0  0  0  0  0  0  0  0  0
   -0.6684    1.1498    1.2514 C   0  0  0  0  0  0  0  0  0  0  0  0
   -1.8465    1.6296    2.4108 Cl  0  0  0  0  0  0  0  0  0  0  0  0
   -0.3432    2.0059    0.2019 C   0  0  0  0  0  0  0  0  0  0  0  0
    0.6109    1.6155   -0.7370 C   0  0  0  0  0  0  0  0  0  0  0  0
    1.2354    0.3717   -0.6237 C   0  0  0  0  0  0  0  0  0  0  0  0
    1.2357   -2.4452   -1.5149 H   0  0  0  0  0  0  0  0  0  0  0  0
   -0.6372   -4.0327   -1.0557 H   0  0  0  0  0  0  0  0  0  0  0  0
   -1.0112   -2.4140   -0.4682 H   0  0  0  0  0  0  0  0  0  0  0  0
   -0.5264   -3.6770    0.6770 H   0  0  0  0  0  0  0  0  0  0  0  0
    2.9257   -3.8427   -0.5489 H   0  0  0  0  0  0  0  0  0  0  0  0
    1.8489   -4.5178    0.4736 H   0  0  0  0  0  0  0  0  0  0  0  0
    1.4312   -2.2500    1.5558 H   0  0  0  0  0  0  0  0  0  0  0  0
    2.6675   -1.6823    0.4563 H   0  0  0  0  0  0  0  0  0  0  0  0
   -0.3155   -0.7512    2.1942 H   0  0  0  0  0  0  0  0  0  0  0  0
   -0.8273    2.9743    0.1101 H   0  0  0  0  0  0  0  0  0  0  0  0
    0.8687    2.2802   -1.5579 H   0  0  0  0  0  0  0  0  0  0  0  0
    1.9790    0.0833   -1.3645 H   0  0  0  0  0  0  0  0  0  0  0  0
  1  2  1  0
  1  3  1  0
  1  4  1  0
  4  5  1  0
  5  6  2  0
  6  7  1  0
  7  8  1  0
  7  9  2  0
  9 10  1  0
 10 11  2  0
 11  5  1  0
  1 12  1  6
  2 13  1  0
  2 14  1  0
  2 15  1  0
  3 16  1  0
  3 17  1  0
  4 18  1  0
  4 19  1  0
  6 20  1  0
  9 21  1  0
 10 22  1  0
 11 23  1  0
M  END
