
     RDKit          3D

 24 23  0  0  0  0  0  0  0  0999 V2000
    2.3008    0.2620    2.3812 C   0  0  0  0  0  0  0  0  0  0  0  0
    1.1119    0.0012    1.4725 C   0  0  0  0  0  0  0  0  0  0  0  0
    1.5226   -0.0304    0.0106 C   0  0  0  0  0  0  0  0  0  0  0  0
    2.3999    0.7262   -0.4192 O   0  0  0  0  0  0  0  0  0  0  0  0
    0.7945   -0.9872   -0.9506 C   0  0  1  0  0  0  0  0  0  0  0  0
    0.9008   -2.3716   -0.4532 N   0  0  0  0  0  0  0  0  0  0  0  0
   -0.6599   -0.5942   -1.2957 C   0  0  0  0  0  0  0  0  0  0  0  0
   -1.6724   -0.7734   -0.1616 C   0  0  0  0  0  0  0  0  0  0  0  0
   -0.7390    0.8332   -1.8463 C   0  0  0  0  0  0  0  0  0  0  0  0
    3.0777   -0.4960    2.2366 H   0  0  0  0  0  0  0  0  0  0  0  0
    2.7468    1.2413    2.1787 H   0  0  0  0  0  0  0  0  0  0  0  0
    1.9901    0.2414    3.4303 H   0  0  0  0  0  0  0  0  0  0  0  0
    0.6568   -0.9519    1.7554 H   0  0  0  0  0  0  0  0  0  0  0  0
    0.3656    0.7911    1.6001 H   0  0  0  0  0  0  0  0  0  0  0  0
    1.3683   -0.9563   -1.8875 H   0  0  0  0  0  0  0  0  0  0  0  0
    1.8875   -2.6363   -0.4290 H   0  0  0  0  0  0  0  0  0  0  0  0
    0.4657   -3.0010   -1.1281 H   0  0  0  0  0  0  0  0  0  0  0  0
   -0.9834   -1.2629   -2.1063 H   0  0  0  0  0  0  0  0  0  0  0  0
   -2.6904   -0.6223   -0.5388 H   0  0  0  0  0  0  0  0  0  0  0  0
   -1.5203   -0.0515    0.6443 H   0  0  0  0  0  0  0  0  0  0  0  0
   -1.6316   -1.7809    0.2630 H   0  0  0  0  0  0  0  0  0  0  0  0
   -1.7490    1.0503   -2.2106 H   0  0  0  0  0  0  0  0  0  0  0  0
   -0.4949    1.5762   -1.0800 H   0  0  0  0  0  0  0  0  0  0  0  0
   -0.0479    0.9667   -2.6852 H   0  0  0  0  0  0  0  0  0  0  0  0
  1  2  1  0
  2  3  1  0
  3  4  2  0
  3  5  1  0
  5  6  1  0
  5  7  1  0
  7  8  1  0
  7  9  1  0
  1 10  1  0
  1 11  1  0
  1 12  1  0
  2 13  1  0
  2 14  1  0
  5 15  1  6
  6 16  1  0
  6 17  1  0
  7 18  1  0
  8 19  1  0
  8 20  1  0
  8 21  1  0
  9 22  1  0
  9 23  1  0
  9 24  1  0
M  END
