
     RDKit          3D

 18 17  0  0  0  0  0  0  0  0999 V2000
    1.1376    0.0169    1.5540 C   0  0  2  0  0  0  0  0  0  0  0  0
    1.7401   -1.3110    1.8440 N   0  0  0  0  0  0  0  0  0  0  0  0
   -0.3899    0.0029    1.5109 C   0  0  0  0  0  0  0  0  0  0  0  0
   -0.9188   -0.8499    0.3814 C   0  0  0  0  0  0  0  0  0  0  0  0
   -1.2516   -0.1814   -0.7582 N   0  0  0  0  0  0  0  0  0  0  0  0
   -1.0142   -2.0701    0.4593 O   0  0  0  0  0  0  0  0  0  0  0  0
    1.7424    0.5916    0.2564 C   0  0  0  0  0  0  0  0  0  0  0  0
    3.0728    0.3188    0.0984 N   0  0  0  0  0  0  0  0  0  0  0  0
    1.1254    1.2757   -0.5543 O   0  0  0  0  0  0  0  0  0  0  0  0
    1.4511    0.6950    2.3576 H   0  0  0  0  0  0  0  0  0  0  0  0
    1.3378   -1.9943    1.1906 H   0  0  0  0  0  0  0  0  0  0  0  0
    1.4006   -1.6248    2.7558 H   0  0  0  0  0  0  0  0  0  0  0  0
   -0.8040   -0.3831    2.4500 H   0  0  0  0  0  0  0  0  0  0  0  0
   -0.7754    1.0240    1.3987 H   0  0  0  0  0  0  0  0  0  0  0  0
   -0.7267    0.6661   -0.9777 H   0  0  0  0  0  0  0  0  0  0  0  0
   -1.4700   -0.7664   -1.5548 H   0  0  0  0  0  0  0  0  0  0  0  0
    3.4340   -0.4694    0.6299 H   0  0  0  0  0  0  0  0  0  0  0  0
    3.5019    0.5460   -0.7871 H   0  0  0  0  0  0  0  0  0  0  0  0
  1  2  1  0
  1  3  1  0
  3  4  1  0
  4  5  1  0
  4  6  2  0
  1  7  1  0
  7  8  1  0
  7  9  2  0
  1 10  1  1
  2 11  1  0
  2 12  1  0
  3 13  1  0
  3 14  1  0
  5 15  1  0
  5 16  1  0
  8 17  1  0
  8 18  1  0
M  END
