
     RDKit          3D

 43 42  0  0  0  0  0  0  0  0999 V2000
    3.7511   -2.3255   -0.8933 C   0  0  0  0  0  0  0  0  0  0  0  0
    2.2323   -2.3770   -0.6891 C   0  0  0  0  0  0  0  0  0  0  0  0
    1.8347   -1.3898    0.4041 C   0  0  0  0  0  0  0  0  0  0  0  0
    1.5261   -2.1396   -2.0436 C   0  0  0  0  0  0  0  0  0  0  0  0
   -0.0135   -2.2991   -2.0286 C   0  0  2  0  0  0  0  0  0  0  0  0
   -0.4781   -2.7635   -3.3505 N   0  0  0  0  0  0  0  0  0  0  0  0
   -0.8032   -1.0205   -1.6491 C   0  0  0  0  0  0  0  0  0  0  0  0
   -0.5746    0.3771   -2.8218 S   0  0  0  0  0  0  0  0  0  0  0  0
   -1.8583    1.5198   -2.1825 C   0  0  0  0  0  0  0  0  0  0  0  0
   -1.5660    2.0764   -0.7663 C   0  0  1  0  0  0  0  0  0  0  0  0
   -0.2258    2.6706   -0.6931 N   0  0  0  0  0  0  0  0  0  0  0  0
   -2.6555    3.1002   -0.3804 C   0  0  0  0  0  0  0  0  0  0  0  0
   -2.6874    3.6075    1.0788 C   0  0  0  0  0  0  0  0  0  0  0  0
   -1.5392    4.5532    1.4276 C   0  0  0  0  0  0  0  0  0  0  0  0
   -2.7732    2.4701    2.0964 C   0  0  0  0  0  0  0  0  0  0  0  0
    4.2789   -2.5474    0.0403 H   0  0  0  0  0  0  0  0  0  0  0  0
    4.0720   -1.3366   -1.2379 H   0  0  0  0  0  0  0  0  0  0  0  0
    4.0702   -3.0644   -1.6362 H   0  0  0  0  0  0  0  0  0  0  0  0
    1.9819   -3.3872   -0.3408 H   0  0  0  0  0  0  0  0  0  0  0  0
    0.8167   -1.5821    0.7534 H   0  0  0  0  0  0  0  0  0  0  0  0
    1.8995   -0.3554    0.0515 H   0  0  0  0  0  0  0  0  0  0  0  0
    2.4880   -1.4888    1.2780 H   0  0  0  0  0  0  0  0  0  0  0  0
    1.8184   -1.1635   -2.4476 H   0  0  0  0  0  0  0  0  0  0  0  0
    1.9462   -2.8792   -2.7403 H   0  0  0  0  0  0  0  0  0  0  0  0
   -0.2765   -3.0857   -1.3108 H   0  0  0  0  0  0  0  0  0  0  0  0
   -0.3553   -1.9981   -4.0187 H   0  0  0  0  0  0  0  0  0  0  0  0
    0.1100   -3.5268   -3.6817 H   0  0  0  0  0  0  0  0  0  0  0  0
   -1.8726   -1.2606   -1.6209 H   0  0  0  0  0  0  0  0  0  0  0  0
   -0.5221   -0.6778   -0.6541 H   0  0  0  0  0  0  0  0  0  0  0  0
   -2.8228    1.0002   -2.1984 H   0  0  0  0  0  0  0  0  0  0  0  0
   -1.9268    2.3466   -2.8993 H   0  0  0  0  0  0  0  0  0  0  0  0
   -1.6053    1.2437   -0.0574 H   0  0  0  0  0  0  0  0  0  0  0  0
   -0.1809    3.4850   -1.3060 H   0  0  0  0  0  0  0  0  0  0  0  0
    0.4387    2.0055   -1.0982 H   0  0  0  0  0  0  0  0  0  0  0  0
   -2.5994    3.9667   -1.0538 H   0  0  0  0  0  0  0  0  0  0  0  0
   -3.6333    2.6381   -0.5781 H   0  0  0  0  0  0  0  0  0  0  0  0
   -3.6121    4.1936    1.1740 H   0  0  0  0  0  0  0  0  0  0  0  0
   -1.4258    5.3322    0.6667 H   0  0  0  0  0  0  0  0  0  0  0  0
   -0.5868    4.0261    1.5326 H   0  0  0  0  0  0  0  0  0  0  0  0
   -1.7374    5.0513    2.3836 H   0  0  0  0  0  0  0  0  0  0  0  0
   -1.8422    1.8964    2.1445 H   0  0  0  0  0  0  0  0  0  0  0  0
   -2.9685    2.8668    3.0988 H   0  0  0  0  0  0  0  0  0  0  0  0
   -3.5884    1.7831    1.8463 H   0  0  0  0  0  0  0  0  0  0  0  0
  1  2  1  0
  2  3  1  0
  2  4  1  0
  4  5  1  0
  5  6  1  0
  5  7  1  0
  7  8  1  0
  8  9  1  0
  9 10  1  0
 10 11  1  0
 10 12  1  0
 12 13  1  0
 13 14  1  0
 13 15  1  0
  1 16  1  0
  1 17  1  0
  1 18  1  0
  2 19  1  0
  3 20  1  0
  3 21  1  0
  3 22  1  0
  4 23  1  0
  4 24  1  0
  5 25  1  1
  6 26  1  0
  6 27  1  0
  7 28  1  0
  7 29  1  0
  9 30  1  0
  9 31  1  0
 10 32  1  1
 11 33  1  0
 11 34  1  0
 12 35  1  0
 12 36  1  0
 13 37  1  0
 14 38  1  0
 14 39  1  0
 14 40  1  0
 15 41  1  0
 15 42  1  0
 15 43  1  0
M  END
