
     RDKit          3D

 45 46  0  0  0  0  0  0  0  0999 V2000
    2.3434    0.0069    3.5672 N   0  0  0  0  0  0  0  0  0  0  0  0
    1.1227    0.6049    2.9932 C   0  0  2  0  0  0  0  0  0  0  0  0
   -0.0786   -0.3574    3.1594 C   0  0  0  0  0  0  0  0  0  0  0  0
    0.1276   -1.9949    2.3437 S   0  0  0  0  0  0  0  0  0  0  0  0
   -0.8335   -1.7033    0.8087 C   0  0  0  0  0  0  0  0  0  0  0  0
   -2.2831   -2.2327    0.8959 C   0  0  1  0  0  0  0  0  0  0  0  0
   -3.0369   -1.6553    2.0256 N   0  0  0  0  0  0  0  0  0  0  0  0
   -3.0382   -2.0603   -0.4466 C   0  0  0  0  0  0  0  0  0  0  0  0
   -3.0140   -0.6744   -1.0516 C   0  0  0  0  0  0  0  0  0  0  0  0
   -2.2632   -0.4194   -2.2087 C   0  0  0  0  0  0  0  0  0  0  0  0
   -2.2254    0.8616   -2.7626 C   0  0  0  0  0  0  0  0  0  0  0  0
   -2.9391    1.9002   -2.1689 C   0  0  0  0  0  0  0  0  0  0  0  0
   -3.6927    1.6582   -1.0227 C   0  0  0  0  0  0  0  0  0  0  0  0
   -3.7314    0.3779   -0.4680 C   0  0  0  0  0  0  0  0  0  0  0  0
    1.3182    1.0487    1.5235 C   0  0  0  0  0  0  0  0  0  0  0  0
    2.3276    2.1625    1.3492 C   0  0  0  0  0  0  0  0  0  0  0  0
    3.5902    1.8989    0.8003 C   0  0  0  0  0  0  0  0  0  0  0  0
    4.5240    2.9251    0.6486 C   0  0  0  0  0  0  0  0  0  0  0  0
    4.2050    4.2232    1.0422 C   0  0  0  0  0  0  0  0  0  0  0  0
    2.9519    4.4969    1.5867 C   0  0  0  0  0  0  0  0  0  0  0  0
    2.0166    3.4723    1.7394 C   0  0  0  0  0  0  0  0  0  0  0  0
    2.5131   -0.8891    3.1064 H   0  0  0  0  0  0  0  0  0  0  0  0
    3.1441    0.6005    3.3485 H   0  0  0  0  0  0  0  0  0  0  0  0
    0.8986    1.4943    3.5955 H   0  0  0  0  0  0  0  0  0  0  0  0
   -0.2225   -0.5628    4.2269 H   0  0  0  0  0  0  0  0  0  0  0  0
   -0.9968    0.1265    2.8116 H   0  0  0  0  0  0  0  0  0  0  0  0
   -0.3084   -2.2303    0.0043 H   0  0  0  0  0  0  0  0  0  0  0  0
   -0.8065   -0.6380    0.5660 H   0  0  0  0  0  0  0  0  0  0  0  0
   -2.2341   -3.3140    1.0849 H   0  0  0  0  0  0  0  0  0  0  0  0
   -3.9309   -2.1375    2.1143 H   0  0  0  0  0  0  0  0  0  0  0  0
   -2.5214   -1.8646    2.8836 H   0  0  0  0  0  0  0  0  0  0  0  0
   -4.0853   -2.3717   -0.3311 H   0  0  0  0  0  0  0  0  0  0  0  0
   -2.6110   -2.7694   -1.1689 H   0  0  0  0  0  0  0  0  0  0  0  0
   -1.6989   -1.2161   -2.6881 H   0  0  0  0  0  0  0  0  0  0  0  0
   -1.6389    1.0490   -3.6582 H   0  0  0  0  0  0  0  0  0  0  0  0
   -2.9093    2.8973   -2.5998 H   0  0  0  0  0  0  0  0  0  0  0  0
   -4.2509    2.4664   -0.5576 H   0  0  0  0  0  0  0  0  0  0  0  0
   -4.3209    0.2077    0.4304 H   0  0  0  0  0  0  0  0  0  0  0  0
    0.3616    1.4010    1.1154 H   0  0  0  0  0  0  0  0  0  0  0  0
    1.6149    0.1961    0.8998 H   0  0  0  0  0  0  0  0  0  0  0  0
    3.8555    0.8914    0.4877 H   0  0  0  0  0  0  0  0  0  0  0  0
    5.5008    2.7116    0.2226 H   0  0  0  0  0  0  0  0  0  0  0  0
    4.9326    5.0217    0.9240 H   0  0  0  0  0  0  0  0  0  0  0  0
    2.7023    5.5093    1.8931 H   0  0  0  0  0  0  0  0  0  0  0  0
    1.0426    3.7031    2.1649 H   0  0  0  0  0  0  0  0  0  0  0  0
  1  2  1  0
  2  3  1  0
  3  4  1  0
  4  5  1  0
  5  6  1  0
  6  7  1  0
  6  8  1  0
  8  9  1  0
  9 10  2  0
 10 11  1  0
 11 12  2  0
 12 13  1  0
 13 14  2  0
  2 15  1  0
 15 16  1  0
 16 17  2  0
 17 18  1  0
 18 19  2  0
 19 20  1  0
 20 21  2  0
 14  9  1  0
 21 16  1  0
  1 22  1  0
  1 23  1  0
  2 24  1  1
  3 25  1  0
  3 26  1  0
  5 27  1  0
  5 28  1  0
  6 29  1  1
  7 30  1  0
  7 31  1  0
  8 32  1  0
  8 33  1  0
 10 34  1  0
 11 35  1  0
 12 36  1  0
 13 37  1  0
 14 38  1  0
 15 39  1  0
 15 40  1  0
 17 41  1  0
 18 42  1  0
 19 43  1  0
 20 44  1  0
 21 45  1  0
M  END
