
     RDKit          3D

 26 25  0  0  0  0  0  0  0  0999 V2000
    1.9428    1.7611    2.2898 C   0  0  0  0  0  0  0  0  0  0  0  0
    0.7528    2.4489    1.6173 C   0  0  2  0  0  0  0  0  0  0  0  0
   -0.4637    1.6640    1.8729 N   0  0  0  0  0  0  0  0  0  0  0  0
    0.9973    2.7101    0.1160 C   0  0  0  0  0  0  0  0  0  0  0  0
    1.1715    1.4789   -0.6751 C   0  0  0  0  0  0  0  0  0  0  0  0
    1.3209    0.4733   -1.3152 C   0  0  0  0  0  0  0  0  0  0  0  0
    1.5084   -0.7619   -2.0906 C   0  0  0  0  0  0  0  0  0  0  0  0
    1.8973   -1.9470   -1.2051 C   0  0  0  0  0  0  0  0  0  0  0  0
    0.7599   -2.3810   -0.2796 C   0  0  0  0  0  0  0  0  0  0  0  0
    1.1458   -3.5689    0.4745 N   0  0  0  0  0  0  0  0  0  0  0  0
    2.0965    0.7429    1.9150 H   0  0  0  0  0  0  0  0  0  0  0  0
    1.7939    1.6964    3.3749 H   0  0  0  0  0  0  0  0  0  0  0  0
    2.8653    2.3278    2.1170 H   0  0  0  0  0  0  0  0  0  0  0  0
    0.6169    3.4243    2.1009 H   0  0  0  0  0  0  0  0  0  0  0  0
   -0.3578    0.7429    1.4462 H   0  0  0  0  0  0  0  0  0  0  0  0
   -1.2521    2.0953    1.3900 H   0  0  0  0  0  0  0  0  0  0  0  0
    1.8849    3.3444   -0.0013 H   0  0  0  0  0  0  0  0  0  0  0  0
    0.1546    3.2812   -0.2931 H   0  0  0  0  0  0  0  0  0  0  0  0
    0.5946   -0.9946   -2.6494 H   0  0  0  0  0  0  0  0  0  0  0  0
    2.3001   -0.5997   -2.8311 H   0  0  0  0  0  0  0  0  0  0  0  0
    2.7857   -1.6965   -0.6105 H   0  0  0  0  0  0  0  0  0  0  0  0
    2.1748   -2.7861   -1.8565 H   0  0  0  0  0  0  0  0  0  0  0  0
   -0.1372   -2.6103   -0.8641 H   0  0  0  0  0  0  0  0  0  0  0  0
    0.5050   -1.5815    0.4239 H   0  0  0  0  0  0  0  0  0  0  0  0
    1.9464   -3.3513    1.0699 H   0  0  0  0  0  0  0  0  0  0  0  0
    0.3875   -3.8265    1.1070 H   0  0  0  0  0  0  0  0  0  0  0  0
  1  2  1  0
  2  3  1  0
  2  4  1  0
  4  5  1  0
  5  6  3  0
  6  7  1  0
  7  8  1  0
  8  9  1  0
  9 10  1  0
  1 11  1  0
  1 12  1  0
  1 13  1  0
  2 14  1  1
  3 15  1  0
  3 16  1  0
  4 17  1  0
  4 18  1  0
  7 19  1  0
  7 20  1  0
  8 21  1  0
  8 22  1  0
  9 23  1  0
  9 24  1  0
 10 25  1  0
 10 26  1  0
M  END
