
     RDKit          3D

 21 20  0  0  0  0  0  0  0  0999 V2000
   -1.7531    0.2552   -3.2462 C   0  0  0  0  0  0  0  0  0  0  0  0
   -0.4526    1.2089   -2.4255 S   0  0  0  0  0  0  0  0  0  0  0  0
   -1.2333    1.4402   -0.7881 C   0  0  0  0  0  0  0  0  0  0  0  0
   -1.2095    0.1827    0.0883 C   0  0  0  0  0  0  0  0  0  0  0  0
   -0.0550    0.1344    1.1133 C   0  0  2  0  0  0  0  0  0  0  0  0
    1.2454    0.2466    0.4504 N   0  0  0  0  0  0  0  0  0  0  0  0
   -0.1787   -1.1544    1.9586 C   0  0  0  0  0  0  0  0  0  0  0  0
    1.1024   -1.2936    3.2478 S   0  0  0  0  0  0  0  0  0  0  0  0
   -2.6924    0.8142   -3.2494 H   0  0  0  0  0  0  0  0  0  0  0  0
   -1.4588    0.0704   -4.2829 H   0  0  0  0  0  0  0  0  0  0  0  0
   -1.8995   -0.7095   -2.7549 H   0  0  0  0  0  0  0  0  0  0  0  0
   -0.7385    2.2776   -0.2849 H   0  0  0  0  0  0  0  0  0  0  0  0
   -2.2698    1.7495   -0.9622 H   0  0  0  0  0  0  0  0  0  0  0  0
   -2.1471    0.1714    0.6612 H   0  0  0  0  0  0  0  0  0  0  0  0
   -1.2202   -0.7318   -0.5169 H   0  0  0  0  0  0  0  0  0  0  0  0
   -0.1613    0.9994    1.7807 H   0  0  0  0  0  0  0  0  0  0  0  0
    1.3725   -0.4970   -0.2343 H   0  0  0  0  0  0  0  0  0  0  0  0
    1.9942    0.1636    1.1363 H   0  0  0  0  0  0  0  0  0  0  0  0
   -0.1156   -2.0439    1.3218 H   0  0  0  0  0  0  0  0  0  0  0  0
   -1.1520   -1.1745    2.4607 H   0  0  0  0  0  0  0  0  0  0  0  0
    2.1162   -1.5990    2.4256 H   0  0  0  0  0  0  0  0  0  0  0  0
  1  2  1  0
  2  3  1  0
  3  4  1  0
  4  5  1  0
  5  6  1  0
  5  7  1  0
  7  8  1  0
  1  9  1  0
  1 10  1  0
  1 11  1  0
  3 12  1  0
  3 13  1  0
  4 14  1  0
  4 15  1  0
  5 16  1  1
  6 17  1  0
  6 18  1  0
  7 19  1  0
  7 20  1  0
  8 21  1  0
M  END
