
     RDKit          3D

 17 16  0  0  0  0  0  0  0  0999 V2000
   -2.1379    0.7619    1.4349 N   0  0  0  0  0  0  0  0  0  0  0  0
   -0.8236    0.5660    0.7811 C   0  0  1  0  0  0  0  0  0  0  0  0
   -1.0064   -0.1533   -0.5671 C   0  0  0  0  0  0  0  0  0  0  0  0
    0.2347   -0.9133   -1.0505 C   0  0  0  0  0  0  0  0  0  0  0  0
    1.4247   -0.0871   -1.5064 C   0  0  0  0  0  0  0  0  0  0  0  0
    1.0336    1.0640   -2.7482 Cl  0  0  0  0  0  0  0  0  0  0  0  0
    2.5478   -0.3138   -1.0650 O   0  0  0  0  0  0  0  0  0  0  0  0
   -0.0802    1.9134    0.6209 C   0  0  0  0  0  0  0  0  0  0  0  0
   -1.0753    3.2126    0.0093 Cl  0  0  0  0  0  0  0  0  0  0  0  0
    1.1290    1.9908    0.8269 O   0  0  0  0  0  0  0  0  0  0  0  0
   -2.7496    1.3181    0.8345 H   0  0  0  0  0  0  0  0  0  0  0  0
   -2.6027   -0.1369    1.5633 H   0  0  0  0  0  0  0  0  0  0  0  0
   -0.2268   -0.0530    1.4613 H   0  0  0  0  0  0  0  0  0  0  0  0
   -1.7999   -0.9060   -0.4606 H   0  0  0  0  0  0  0  0  0  0  0  0
   -1.3571    0.5453   -1.3348 H   0  0  0  0  0  0  0  0  0  0  0  0
   -0.0457   -1.5544   -1.8958 H   0  0  0  0  0  0  0  0  0  0  0  0
    0.5775   -1.5862   -0.2548 H   0  0  0  0  0  0  0  0  0  0  0  0
  1  2  1  0
  2  3  1  0
  3  4  1  0
  4  5  1  0
  5  6  1  0
  5  7  2  0
  2  8  1  0
  8  9  1  0
  8 10  2  0
  1 11  1  0
  1 12  1  0
  2 13  1  1
  3 14  1  0
  3 15  1  0
  4 16  1  0
  4 17  1  0
M  END
