
     RDKit          3D

 42 43  0  0  0  0  0  0  0  0999 V2000
   -3.7171   -1.0808    0.3066 C   0  0  0  0  0  0  0  0  0  0  0  0
   -2.2005   -0.9370    0.3741 C   0  0  0  0  0  0  0  0  0  0  0  0
   -1.6969    0.0132    1.4833 C   0  0  1  0  0  0  0  0  0  0  0  0
   -2.2026   -0.4906    2.8546 C   0  0  0  0  0  0  0  0  0  0  0  0
   -0.1372    0.1758    1.5036 C   0  0  2  0  0  0  0  0  0  0  0  0
    0.2283    1.0665    2.6537 N   0  0  0  0  0  0  0  0  0  0  0  0
    0.6595    0.6322    0.1795 C   0  0  0  0  0  0  0  0  0  0  0  0
    1.9781    0.6695    0.6386 F   0  0  0  0  0  0  0  0  0  0  0  0
    0.2676    2.0709   -0.2340 C   0  0  0  0  0  0  0  0  0  0  0  0
   -1.0107    2.4198   -0.7027 C   0  0  0  0  0  0  0  0  0  0  0  0
   -1.3176    3.7386   -1.0502 C   0  0  0  0  0  0  0  0  0  0  0  0
   -0.3517    4.7342   -0.9415 C   0  0  0  0  0  0  0  0  0  0  0  0
    0.9241    4.4121   -0.4908 C   0  0  0  0  0  0  0  0  0  0  0  0
    1.2308    3.0945   -0.1433 C   0  0  0  0  0  0  0  0  0  0  0  0
    0.6661   -0.3977   -0.9680 C   0  0  0  0  0  0  0  0  0  0  0  0
    0.4311   -0.0615   -2.3141 C   0  0  0  0  0  0  0  0  0  0  0  0
    0.4717   -1.0298   -3.3230 C   0  0  0  0  0  0  0  0  0  0  0  0
    0.7750   -2.3514   -3.0147 C   0  0  0  0  0  0  0  0  0  0  0  0
    1.0571   -2.7031   -1.6999 C   0  0  0  0  0  0  0  0  0  0  0  0
    1.0161   -1.7355   -0.6922 C   0  0  0  0  0  0  0  0  0  0  0  0
   -4.1100   -1.6396    1.1605 H   0  0  0  0  0  0  0  0  0  0  0  0
   -3.9989   -1.6316   -0.5970 H   0  0  0  0  0  0  0  0  0  0  0  0
   -4.2044   -0.1015    0.2712 H   0  0  0  0  0  0  0  0  0  0  0  0
   -1.8887   -0.5679   -0.6037 H   0  0  0  0  0  0  0  0  0  0  0  0
   -1.7576   -1.9315    0.5029 H   0  0  0  0  0  0  0  0  0  0  0  0
   -2.1542    0.9979    1.3322 H   0  0  0  0  0  0  0  0  0  0  0  0
   -3.2957   -0.5181    2.8927 H   0  0  0  0  0  0  0  0  0  0  0  0
   -1.8271   -1.4977    3.0654 H   0  0  0  0  0  0  0  0  0  0  0  0
   -1.8926    0.1658    3.6736 H   0  0  0  0  0  0  0  0  0  0  0  0
    0.2710   -0.7993    1.7959 H   0  0  0  0  0  0  0  0  0  0  0  0
   -0.1204    2.0071    2.4579 H   0  0  0  0  0  0  0  0  0  0  0  0
    1.2481    1.1619    2.6485 H   0  0  0  0  0  0  0  0  0  0  0  0
   -1.7865    1.6707   -0.8278 H   0  0  0  0  0  0  0  0  0  0  0  0
   -2.3127    3.9863   -1.4119 H   0  0  0  0  0  0  0  0  0  0  0  0
   -0.5911    5.7589   -1.2133 H   0  0  0  0  0  0  0  0  0  0  0  0
    1.6846    5.1848   -0.4102 H   0  0  0  0  0  0  0  0  0  0  0  0
    2.2392    2.8704    0.2023 H   0  0  0  0  0  0  0  0  0  0  0  0
    0.2245    0.9624   -2.6157 H   0  0  0  0  0  0  0  0  0  0  0  0
    0.2776   -0.7442   -4.3540 H   0  0  0  0  0  0  0  0  0  0  0  0
    0.8118   -3.1009   -3.8006 H   0  0  0  0  0  0  0  0  0  0  0  0
    1.3230   -3.7287   -1.4565 H   0  0  0  0  0  0  0  0  0  0  0  0
    1.2814   -2.0417    0.3177 H   0  0  0  0  0  0  0  0  0  0  0  0
  1  2  1  0
  2  3  1  0
  3  4  1  0
  3  5  1  0
  5  6  1  0
  5  7  1  0
  7  8  1  0
  7  9  1  0
  9 10  2  0
 10 11  1  0
 11 12  2  0
 12 13  1  0
 13 14  2  0
  7 15  1  0
 15 16  2  0
 16 17  1  0
 17 18  2  0
 18 19  1  0
 19 20  2  0
 14  9  1  0
 20 15  1  0
  1 21  1  0
  1 22  1  0
  1 23  1  0
  2 24  1  0
  2 25  1  0
  3 26  1  6
  4 27  1  0
  4 28  1  0
  4 29  1  0
  5 30  1  1
  6 31  1  0
  6 32  1  0
 10 33  1  0
 11 34  1  0
 12 35  1  0
 13 36  1  0
 14 37  1  0
 16 38  1  0
 17 39  1  0
 18 40  1  0
 19 41  1  0
 20 42  1  0
M  END
