
     RDKit          3D

 19 18  0  0  0  0  0  0  0  0999 V2000
   -0.4730   -2.1581    0.3185 N   0  0  0  0  0  0  0  0  0  0  0  0
    0.2858   -0.9928    0.8379 C   0  0  2  0  0  0  0  0  0  0  0  0
   -0.6333   -0.0313    1.6110 C   0  0  0  0  0  0  0  0  0  0  0  0
   -1.6894    0.6391    0.7755 C   0  0  0  0  0  0  0  0  0  0  0  0
   -1.6274    1.8639    0.3421 C   0  0  0  0  0  0  0  0  0  0  0  0
   -1.5665    3.0826   -0.0982 C   0  0  0  0  0  0  0  0  0  0  0  0
    1.0562   -0.3225   -0.3247 C   0  0  0  0  0  0  0  0  0  0  0  0
    1.7820    0.7939   -0.0260 N   0  0  0  0  0  0  0  0  0  0  0  0
    1.0926   -0.7872   -1.4633 O   0  0  0  0  0  0  0  0  0  0  0  0
    0.1966   -2.7471   -0.1862 H   0  0  0  0  0  0  0  0  0  0  0  0
   -1.0795   -1.8175   -0.4324 H   0  0  0  0  0  0  0  0  0  0  0  0
    1.0410   -1.3825    1.5314 H   0  0  0  0  0  0  0  0  0  0  0  0
   -0.0289    0.7308    2.1187 H   0  0  0  0  0  0  0  0  0  0  0  0
   -1.1386   -0.5848    2.4135 H   0  0  0  0  0  0  0  0  0  0  0  0
   -2.5560    0.0385    0.5102 H   0  0  0  0  0  0  0  0  0  0  0  0
   -1.3088    3.2838   -1.1320 H   0  0  0  0  0  0  0  0  0  0  0  0
   -1.8180    3.9173    0.5461 H   0  0  0  0  0  0  0  0  0  0  0  0
    1.5201    1.3921    0.7454 H   0  0  0  0  0  0  0  0  0  0  0  0
    2.1979    1.2559   -0.8255 H   0  0  0  0  0  0  0  0  0  0  0  0
  1  2  1  0
  2  3  1  0
  3  4  1  0
  4  5  2  0
  5  6  2  0
  2  7  1  0
  7  8  1  0
  7  9  2  0
  1 10  1  0
  1 11  1  0
  2 12  1  1
  3 13  1  0
  3 14  1  0
  4 15  1  0
  6 16  1  0
  6 17  1  0
  8 18  1  0
  8 19  1  0
M  END
