
     RDKit          3D

 26 25  0  0  0  0  0  0  0  0999 V2000
    0.7154   -0.5244    0.5413 C   0  0  0  0  0  0  0  0  0  0  0  0
   -0.3895   -1.1228   -0.3280 C   0  0  0  0  0  0  0  0  0  0  0  0
   -0.5552   -2.6081    0.0158 C   0  0  0  0  0  0  0  0  0  0  0  0
   -1.7523   -0.4106   -0.1798 C   0  0  0  0  0  0  0  0  0  0  0  0
   -1.8447    1.0766   -0.5840 C   0  0  1  0  0  0  0  0  0  0  0  0
   -1.2002    1.9329    0.4181 N   0  0  0  0  0  0  0  0  0  0  0  0
   -1.2852    1.3425   -1.9998 C   0  0  0  0  0  0  0  0  0  0  0  0
   -1.6578    2.7040   -2.5324 C   0  0  0  0  0  0  0  0  0  0  0  0
   -0.7697    3.6532   -2.8540 C   0  0  0  0  0  0  0  0  0  0  0  0
    1.6208   -1.1400    0.4977 H   0  0  0  0  0  0  0  0  0  0  0  0
    0.9974    0.4744    0.1970 H   0  0  0  0  0  0  0  0  0  0  0  0
    0.4057   -0.4576    1.5896 H   0  0  0  0  0  0  0  0  0  0  0  0
   -0.0691   -1.0691   -1.3753 H   0  0  0  0  0  0  0  0  0  0  0  0
   -1.3100   -3.0751   -0.6257 H   0  0  0  0  0  0  0  0  0  0  0  0
    0.3853   -3.1498   -0.1316 H   0  0  0  0  0  0  0  0  0  0  0  0
   -0.8642   -2.7427    1.0581 H   0  0  0  0  0  0  0  0  0  0  0  0
   -2.1067   -0.5212    0.8547 H   0  0  0  0  0  0  0  0  0  0  0  0
   -2.4820   -0.9551   -0.7957 H   0  0  0  0  0  0  0  0  0  0  0  0
   -2.9115    1.3384   -0.5835 H   0  0  0  0  0  0  0  0  0  0  0  0
   -1.6960    1.8570    1.3044 H   0  0  0  0  0  0  0  0  0  0  0  0
   -1.2745    2.9074    0.1250 H   0  0  0  0  0  0  0  0  0  0  0  0
   -0.1950    1.2195   -2.0075 H   0  0  0  0  0  0  0  0  0  0  0  0
   -1.6896    0.5957   -2.6946 H   0  0  0  0  0  0  0  0  0  0  0  0
   -2.7183    2.9039   -2.6696 H   0  0  0  0  0  0  0  0  0  0  0  0
   -1.0956    4.6134   -3.2417 H   0  0  0  0  0  0  0  0  0  0  0  0
    0.2984    3.4953   -2.7371 H   0  0  0  0  0  0  0  0  0  0  0  0
  1  2  1  0
  2  3  1  0
  2  4  1  0
  4  5  1  0
  5  6  1  0
  5  7  1  0
  7  8  1  0
  8  9  2  3
  1 10  1  0
  1 11  1  0
  1 12  1  0
  2 13  1  0
  3 14  1  0
  3 15  1  0
  3 16  1  0
  4 17  1  0
  4 18  1  0
  5 19  1  6
  6 20  1  0
  6 21  1  0
  7 22  1  0
  7 23  1  0
  8 24  1  0
  9 25  1  0
  9 26  1  0
M  END
