
     RDKit          3D

 35 34  0  0  0  0  0  0  0  0999 V2000
   -4.5644   -0.9496   -0.7830 C   0  0  0  0  0  0  0  0  0  0  0  0
   -3.3101   -0.8746   -1.6397 C   0  0  0  0  0  0  0  0  0  0  0  0
   -2.5102    0.4161   -1.4454 C   0  0  0  0  0  0  0  0  0  0  0  0
   -1.9127    0.5505   -0.0423 C   0  0  0  0  0  0  0  0  0  0  0  0
   -1.0607    1.8094    0.1333 C   0  0  0  0  0  0  0  0  0  0  0  0
    0.2159    1.8951   -0.7125 C   0  0  0  0  0  0  0  0  0  0  0  0
    1.2700    0.8247   -0.3859 C   0  0  0  0  0  0  0  0  0  0  0  0
    1.2518   -0.4072   -1.3139 C   0  0  1  0  0  0  0  0  0  0  0  0
    1.6004   -0.0174   -2.6882 N   0  0  0  0  0  0  0  0  0  0  0  0
    2.1736   -1.5416   -0.7980 C   0  0  0  0  0  0  0  0  0  0  0  0
    3.6409   -1.2014   -0.7379 C   0  0  0  0  0  0  0  0  0  0  0  0
    4.5858   -1.8168   -1.4603 C   0  0  0  0  0  0  0  0  0  0  0  0
   -4.3207   -1.0109    0.2815 H   0  0  0  0  0  0  0  0  0  0  0  0
   -5.1422   -1.8430   -1.0414 H   0  0  0  0  0  0  0  0  0  0  0  0
   -5.2031   -0.0754   -0.9434 H   0  0  0  0  0  0  0  0  0  0  0  0
   -3.6050   -0.9438   -2.6936 H   0  0  0  0  0  0  0  0  0  0  0  0
   -2.6734   -1.7425   -1.4318 H   0  0  0  0  0  0  0  0  0  0  0  0
   -3.1509    1.2808   -1.6572 H   0  0  0  0  0  0  0  0  0  0  0  0
   -1.7108    0.4271   -2.1938 H   0  0  0  0  0  0  0  0  0  0  0  0
   -1.3290   -0.3400    0.2131 H   0  0  0  0  0  0  0  0  0  0  0  0
   -2.7269    0.6018    0.6903 H   0  0  0  0  0  0  0  0  0  0  0  0
   -0.7850    1.8939    1.1922 H   0  0  0  0  0  0  0  0  0  0  0  0
   -1.6805    2.6875   -0.0887 H   0  0  0  0  0  0  0  0  0  0  0  0
   -0.0273    1.9126   -1.7795 H   0  0  0  0  0  0  0  0  0  0  0  0
    0.6661    2.8734   -0.4968 H   0  0  0  0  0  0  0  0  0  0  0  0
    1.1612    0.5063    0.6583 H   0  0  0  0  0  0  0  0  0  0  0  0
    2.2566    1.3026   -0.4539 H   0  0  0  0  0  0  0  0  0  0  0  0
    0.2373   -0.8154   -1.3436 H   0  0  0  0  0  0  0  0  0  0  0  0
    1.6287   -0.8508   -3.2750 H   0  0  0  0  0  0  0  0  0  0  0  0
    2.5548    0.3454   -2.6959 H   0  0  0  0  0  0  0  0  0  0  0  0
    2.0229   -2.4294   -1.4269 H   0  0  0  0  0  0  0  0  0  0  0  0
    1.8516   -1.8303    0.2107 H   0  0  0  0  0  0  0  0  0  0  0  0
    3.9386   -0.4176   -0.0444 H   0  0  0  0  0  0  0  0  0  0  0  0
    4.3456   -2.6134   -2.1576 H   0  0  0  0  0  0  0  0  0  0  0  0
    5.6300   -1.5342   -1.3642 H   0  0  0  0  0  0  0  0  0  0  0  0
  1  2  1  0
  2  3  1  0
  3  4  1  0
  4  5  1  0
  5  6  1  0
  6  7  1  0
  7  8  1  0
  8  9  1  0
  8 10  1  0
 10 11  1  0
 11 12  2  3
  1 13  1  0
  1 14  1  0
  1 15  1  0
  2 16  1  0
  2 17  1  0
  3 18  1  0
  3 19  1  0
  4 20  1  0
  4 21  1  0
  5 22  1  0
  5 23  1  0
  6 24  1  0
  6 25  1  0
  7 26  1  0
  7 27  1  0
  8 28  1  6
  9 29  1  0
  9 30  1  0
 10 31  1  0
 10 32  1  0
 11 33  1  0
 12 34  1  0
 12 35  1  0
M  END
