
     RDKit          3D

 51 51  0  0  0  0  0  0  0  0999 V2000
    0.1291   -2.5063    2.8935 C   0  0  0  0  0  0  0  0  0  0  0  0
    0.1486   -0.9764    2.9932 C   0  0  0  0  0  0  0  0  0  0  0  0
    0.4742   -0.6274    4.4655 C   0  0  0  0  0  0  0  0  0  0  0  0
   -1.2119   -0.3576    2.6748 C   0  0  0  0  0  0  0  0  0  0  0  0
    1.5603   -0.2667    2.0319 S   0  0  0  0  0  0  0  0  0  0  0  0
    1.1247   -0.2132    0.2218 C   0  0  1  0  0  0  0  0  0  0  0  0
    0.8771   -1.6211   -0.4073 C   0  0  0  0  0  0  0  0  0  0  0  0
   -0.5615   -2.1395   -0.5877 C   0  0  0  0  0  0  0  0  0  0  0  0
   -1.3144   -1.7300   -1.8310 C   0  0  0  0  0  0  0  0  0  0  0  0
   -0.8260   -2.0469   -3.1061 C   0  0  0  0  0  0  0  0  0  0  0  0
   -1.5395   -1.6864   -4.2510 C   0  0  0  0  0  0  0  0  0  0  0  0
   -2.7544   -1.0146   -4.1348 C   0  0  0  0  0  0  0  0  0  0  0  0
   -3.2591   -0.7066   -2.8736 C   0  0  0  0  0  0  0  0  0  0  0  0
   -2.5464   -1.0666   -1.7282 C   0  0  0  0  0  0  0  0  0  0  0  0
    0.2668    0.9745   -0.3579 C   0  0  2  0  0  0  0  0  0  0  0  0
    0.4145    0.8845   -1.8281 N   0  0  0  0  0  0  0  0  0  0  0  0
    0.5710    2.4659    0.0990 C   0  0  0  0  0  0  0  0  0  0  0  0
    0.0606    2.7610    1.5235 C   0  0  0  0  0  0  0  0  0  0  0  0
    2.0700    2.8191    0.0293 C   0  0  0  0  0  0  0  0  0  0  0  0
   -0.1915    3.4719   -0.8115 C   0  0  0  0  0  0  0  0  0  0  0  0
    1.0969   -2.9422    3.1691 H   0  0  0  0  0  0  0  0  0  0  0  0
   -0.6169   -2.9281    3.5782 H   0  0  0  0  0  0  0  0  0  0  0  0
   -0.1246   -2.8706    1.9005 H   0  0  0  0  0  0  0  0  0  0  0  0
   -0.3030   -1.0130    5.1371 H   0  0  0  0  0  0  0  0  0  0  0  0
    1.4250   -1.0664    4.7922 H   0  0  0  0  0  0  0  0  0  0  0  0
    0.5278    0.4564    4.6270 H   0  0  0  0  0  0  0  0  0  0  0  0
   -2.0068   -0.8690    3.2313 H   0  0  0  0  0  0  0  0  0  0  0  0
   -1.4781   -0.4137    1.6222 H   0  0  0  0  0  0  0  0  0  0  0  0
   -1.2544    0.6937    2.9739 H   0  0  0  0  0  0  0  0  0  0  0  0
    2.1363    0.0168   -0.1476 H   0  0  0  0  0  0  0  0  0  0  0  0
    1.4275   -2.3630    0.1868 H   0  0  0  0  0  0  0  0  0  0  0  0
    1.3790   -1.6435   -1.3842 H   0  0  0  0  0  0  0  0  0  0  0  0
   -0.5149   -3.2375   -0.6172 H   0  0  0  0  0  0  0  0  0  0  0  0
   -1.1666   -1.9112    0.2880 H   0  0  0  0  0  0  0  0  0  0  0  0
    0.1186   -2.5738   -3.2161 H   0  0  0  0  0  0  0  0  0  0  0  0
   -1.1451   -1.9318   -5.2333 H   0  0  0  0  0  0  0  0  0  0  0  0
   -3.3090   -0.7362   -5.0266 H   0  0  0  0  0  0  0  0  0  0  0  0
   -4.2102   -0.1894   -2.7806 H   0  0  0  0  0  0  0  0  0  0  0  0
   -2.9591   -0.8223   -0.7525 H   0  0  0  0  0  0  0  0  0  0  0  0
   -0.7843    0.7713   -0.1293 H   0  0  0  0  0  0  0  0  0  0  0  0
    1.2293    1.3988   -2.1523 H   0  0  0  0  0  0  0  0  0  0  0  0
   -0.4012    1.2826   -2.2920 H   0  0  0  0  0  0  0  0  0  0  0  0
   -0.9971    2.4969    1.6210 H   0  0  0  0  0  0  0  0  0  0  0  0
    0.6260    2.2459    2.2988 H   0  0  0  0  0  0  0  0  0  0  0  0
    0.1454    3.8296    1.7580 H   0  0  0  0  0  0  0  0  0  0  0  0
    2.2362    3.8696    0.2967 H   0  0  0  0  0  0  0  0  0  0  0  0
    2.6649    2.2180    0.7223 H   0  0  0  0  0  0  0  0  0  0  0  0
    2.4790    2.6752   -0.9755 H   0  0  0  0  0  0  0  0  0  0  0  0
    0.1970    3.4808   -1.8354 H   0  0  0  0  0  0  0  0  0  0  0  0
   -0.0966    4.4986   -0.4376 H   0  0  0  0  0  0  0  0  0  0  0  0
   -1.2603    3.2326   -0.8517 H   0  0  0  0  0  0  0  0  0  0  0  0
  1  2  1  0
  2  3  1  0
  2  4  1  0
  2  5  1  0
  5  6  1  0
  6  7  1  0
  7  8  1  0
  8  9  1  0
  9 10  2  0
 10 11  1  0
 11 12  2  0
 12 13  1  0
 13 14  2  0
  6 15  1  0
 15 16  1  0
 15 17  1  0
 17 18  1  0
 17 19  1  0
 17 20  1  0
 14  9  1  0
  1 21  1  0
  1 22  1  0
  1 23  1  0
  3 24  1  0
  3 25  1  0
  3 26  1  0
  4 27  1  0
  4 28  1  0
  4 29  1  0
  6 30  1  6
  7 31  1  0
  7 32  1  0
  8 33  1  0
  8 34  1  0
 10 35  1  0
 11 36  1  0
 12 37  1  0
 13 38  1  0
 14 39  1  0
 15 40  1  6
 16 41  1  0
 16 42  1  0
 18 43  1  0
 18 44  1  0
 18 45  1  0
 19 46  1  0
 19 47  1  0
 19 48  1  0
 20 49  1  0
 20 50  1  0
 20 51  1  0
M  END
