
     RDKit          3D

 25 25  0  0  0  0  0  0  0  0999 V2000
    1.7408   -0.8048    0.4793 C   0  0  0  0  0  0  0  0  0  0  0  0
    0.4251   -0.9006    1.2563 C   0  0  2  0  0  0  0  0  0  0  0  0
   -0.0181   -2.3069    1.2426 N   0  0  0  0  0  0  0  0  0  0  0  0
   -0.6800    0.1159    0.7862 C   0  0  1  0  0  0  0  0  0  0  0  0
   -0.2454    1.5121    0.9403 N   0  0  0  0  0  0  0  0  0  0  0  0
   -1.2041   -0.1370   -0.6222 C   0  0  0  0  0  0  0  0  0  0  0  0
   -0.5362    0.3564   -1.7577 C   0  0  0  0  0  0  0  0  0  0  0  0
   -1.0268    0.1061   -3.0404 C   0  0  0  0  0  0  0  0  0  0  0  0
   -2.1887   -0.6376   -3.1953 C   0  0  0  0  0  0  0  0  0  0  0  0
   -2.6605   -0.8782   -4.4256 F   0  0  0  0  0  0  0  0  0  0  0  0
   -2.8702   -1.1353   -2.0921 C   0  0  0  0  0  0  0  0  0  0  0  0
   -2.3806   -0.8856   -0.8084 C   0  0  0  0  0  0  0  0  0  0  0  0
    2.5031   -1.4484    0.9342 H   0  0  0  0  0  0  0  0  0  0  0  0
    1.6281   -1.1212   -0.5627 H   0  0  0  0  0  0  0  0  0  0  0  0
    2.1351    0.2163    0.4867 H   0  0  0  0  0  0  0  0  0  0  0  0
    0.6543   -0.6617    2.3033 H   0  0  0  0  0  0  0  0  0  0  0  0
   -0.1846   -2.5900    0.2752 H   0  0  0  0  0  0  0  0  0  0  0  0
   -0.9148   -2.3898    1.7177 H   0  0  0  0  0  0  0  0  0  0  0  0
   -1.5294   -0.0020    1.4740 H   0  0  0  0  0  0  0  0  0  0  0  0
   -1.0306    2.1236    0.7188 H   0  0  0  0  0  0  0  0  0  0  0  0
   -0.0129    1.6854    1.9167 H   0  0  0  0  0  0  0  0  0  0  0  0
    0.3736    0.9438   -1.6434 H   0  0  0  0  0  0  0  0  0  0  0  0
   -0.5100    0.4878   -3.9149 H   0  0  0  0  0  0  0  0  0  0  0  0
   -3.7777   -1.7123   -2.2385 H   0  0  0  0  0  0  0  0  0  0  0  0
   -2.9254   -1.2792    0.0470 H   0  0  0  0  0  0  0  0  0  0  0  0
  1  2  1  0
  2  3  1  0
  2  4  1  0
  4  5  1  0
  4  6  1  0
  6  7  2  0
  7  8  1  0
  8  9  2  0
  9 10  1  0
  9 11  1  0
 11 12  2  0
 12  6  1  0
  1 13  1  0
  1 14  1  0
  1 15  1  0
  2 16  1  1
  3 17  1  0
  3 18  1  0
  4 19  1  1
  5 20  1  0
  5 21  1  0
  7 22  1  0
  8 23  1  0
 11 24  1  0
 12 25  1  0
M  END
