
     RDKit          3D

 13 12  0  0  0  0  0  0  0  0999 V2000
    1.2624    1.2594    2.4005 N   0  0  0  0  0  0  0  0  0  0  0  0
    0.2186    1.1423    1.3394 C   0  0  1  0  0  0  0  0  0  0  0  0
    0.8599    1.3929   -0.0317 C   0  0  0  0  0  0  0  0  0  0  0  0
   -0.3668    1.7249   -1.3436 S   0  0  0  0  0  0  0  0  0  0  0  0
   -0.4546   -0.2468    1.4049 C   0  0  0  0  0  0  0  0  0  0  0  0
   -1.1468   -0.8490    2.9916 S   0  0  0  0  0  1  0  0  0  0  0  0
   -0.6359   -0.9930    0.4512 O   0  0  0  0  0  0  0  0  0  0  0  0
    0.8657    0.8372    3.2507 H   0  0  0  0  0  0  0  0  0  0  0  0
    1.3933    2.2449    2.6218 H   0  0  0  0  0  0  0  0  0  0  0  0
   -0.5548    1.8933    1.5447 H   0  0  0  0  0  0  0  0  0  0  0  0
    1.5080    2.2754    0.0110 H   0  0  0  0  0  0  0  0  0  0  0  0
    1.4777    0.5437   -0.3444 H   0  0  0  0  0  0  0  0  0  0  0  0
   -0.9181    0.4967   -1.3268 H   0  0  0  0  0  0  0  0  0  0  0  0
  1  2  1  0
  2  3  1  0
  3  4  1  0
  2  5  1  0
  5  6  1  0
  5  7  2  0
  1  8  1  0
  1  9  1  0
  2 10  1  1
  3 11  1  0
  3 12  1  0
  4 13  1  0
M  RAD  1   6   2
M  END
