
     RDKit          3D

 17 16  0  0  0  0  0  0  0  0999 V2000
   -0.0453    1.2013    1.7995 C   0  0  0  0  0  0  0  0  0  0  0  0
    0.0597   -0.2680    1.3569 C   0  0  2  0  0  0  0  0  0  0  0  0
    1.1848   -0.8888    2.1643 N   0  0  0  0  0  0  0  0  0  0  0  0
    0.4719   -0.3546   -0.1248 C   0  0  0  0  0  0  0  0  0  0  0  0
    0.9430   -1.5735   -0.5292 N   0  0  0  0  0  0  0  0  0  0  0  0
    0.3959    0.5774   -0.9183 O   0  0  0  0  0  0  0  0  0  0  0  0
   -1.2930   -1.0122    1.5381 C   0  0  0  0  0  0  0  0  0  0  0  0
   -1.6539   -0.9337    2.8551 F   0  0  0  0  0  0  0  0  0  0  0  0
   -1.1499   -2.3424    1.2853 F   0  0  0  0  0  0  0  0  0  0  0  0
   -2.7588   -0.3188    0.4604 Br  0  0  0  0  0  0  0  0  0  0  0  0
   -0.3333    1.2808    2.8539 H   0  0  0  0  0  0  0  0  0  0  0  0
   -0.7778    1.7604    1.2082 H   0  0  0  0  0  0  0  0  0  0  0  0
    0.9115    1.7232    1.6738 H   0  0  0  0  0  0  0  0  0  0  0  0
    1.9929   -0.2646    2.1326 H   0  0  0  0  0  0  0  0  0  0  0  0
    0.8908   -0.9213    3.1439 H   0  0  0  0  0  0  0  0  0  0  0  0
    1.3489   -1.6265   -1.4541 H   0  0  0  0  0  0  0  0  0  0  0  0
    1.3076   -2.1962    0.1865 H   0  0  0  0  0  0  0  0  0  0  0  0
  1  2  1  0
  2  3  1  1
  2  4  1  0
  4  5  1  0
  4  6  2  0
  2  7  1  0
  7  8  1  0
  7  9  1  0
  7 10  1  0
  1 11  1  0
  1 12  1  0
  1 13  1  0
  3 14  1  0
  3 15  1  0
  5 16  1  0
  5 17  1  0
M  END
