
     RDKit          3D

 23 22  0  0  0  0  0  0  0  0999 V2000
    1.4201   -1.1796    1.8756 C   0  0  0  0  0  0  0  0  0  0  0  0
    1.8987   -0.5703    0.5687 C   0  0  0  0  0  0  0  0  0  0  0  0
    1.3711    0.8412    0.2807 C   0  0  0  0  0  0  0  0  0  0  0  0
   -0.1510    1.0222    0.0864 C   0  0  2  0  0  0  0  0  0  0  0  0
   -0.8427    0.9341    1.3814 N   0  0  0  0  0  0  0  0  0  0  0  0
   -0.7955    0.0321   -0.9120 C   0  0  0  0  0  0  0  0  0  0  0  0
   -0.3684    0.0858   -2.3579 C   0  0  0  0  0  0  0  0  0  0  0  0
    0.2676    1.0794   -2.9915 C   0  0  0  0  0  0  0  0  0  0  0  0
    1.9678   -2.1060    2.0779 H   0  0  0  0  0  0  0  0  0  0  0  0
    0.3576   -1.4343    1.8357 H   0  0  0  0  0  0  0  0  0  0  0  0
    1.5894   -0.4986    2.7155 H   0  0  0  0  0  0  0  0  0  0  0  0
    2.9941   -0.5144    0.6041 H   0  0  0  0  0  0  0  0  0  0  0  0
    1.6592   -1.2450   -0.2602 H   0  0  0  0  0  0  0  0  0  0  0  0
    1.8804    1.1980   -0.6229 H   0  0  0  0  0  0  0  0  0  0  0  0
    1.7129    1.5133    1.0799 H   0  0  0  0  0  0  0  0  0  0  0  0
   -0.3169    2.0439   -0.2781 H   0  0  0  0  0  0  0  0  0  0  0  0
   -1.8263    1.1723    1.2594 H   0  0  0  0  0  0  0  0  0  0  0  0
   -0.4577    1.6282    2.0209 H   0  0  0  0  0  0  0  0  0  0  0  0
   -1.8845    0.1789   -0.9065 H   0  0  0  0  0  0  0  0  0  0  0  0
   -0.6377   -0.9939   -0.5560 H   0  0  0  0  0  0  0  0  0  0  0  0
   -0.6358   -0.7951   -2.9413 H   0  0  0  0  0  0  0  0  0  0  0  0
    0.5112    0.9900   -4.0466 H   0  0  0  0  0  0  0  0  0  0  0  0
    0.5532    2.0024   -2.4999 H   0  0  0  0  0  0  0  0  0  0  0  0
  1  2  1  0
  2  3  1  0
  3  4  1  0
  4  5  1  0
  4  6  1  0
  6  7  1  0
  7  8  2  3
  1  9  1  0
  1 10  1  0
  1 11  1  0
  2 12  1  0
  2 13  1  0
  3 14  1  0
  3 15  1  0
  4 16  1  6
  5 17  1  0
  5 18  1  0
  6 19  1  0
  6 20  1  0
  7 21  1  0
  8 22  1  0
  8 23  1  0
M  END
