
     RDKit          3D

 35 36  0  0  0  0  0  0  0  0999 V2000
    2.2062    2.6710    0.8329 C   0  0  0  0  0  0  0  0  0  0  0  0
    2.1871    1.2178    0.3283 C   0  0  2  0  0  0  0  0  0  0  0  0
    2.6594    1.2199   -1.0744 N   0  0  0  0  0  0  0  0  0  0  0  0
    0.8113    0.4240    0.6391 C   0  0  0  0  0  0  0  0  0  0  0  0
    0.5742    0.5196    2.1119 N   0  0  0  0  0  0  0  0  0  0  0  0
   -0.4788    0.9609   -0.0386 C   0  0  0  0  0  0  0  0  0  0  0  0
   -0.4818    1.8910   -1.0902 C   0  0  0  0  0  0  0  0  0  0  0  0
   -1.6777    2.3271   -1.6724 C   0  0  0  0  0  0  0  0  0  0  0  0
   -2.8995    1.8355   -1.2233 C   0  0  0  0  0  0  0  0  0  0  0  0
   -2.9285    0.9007   -0.1952 C   0  0  0  0  0  0  0  0  0  0  0  0
   -1.7343    0.4668    0.3850 C   0  0  0  0  0  0  0  0  0  0  0  0
    1.0535   -1.0695    0.2523 C   0  0  0  0  0  0  0  0  0  0  0  0
    0.7887   -1.5299   -1.0546 C   0  0  0  0  0  0  0  0  0  0  0  0
    1.0365   -2.8542   -1.4260 C   0  0  0  0  0  0  0  0  0  0  0  0
    1.5608   -3.7510   -0.5015 C   0  0  0  0  0  0  0  0  0  0  0  0
    1.8375   -3.3239    0.7933 C   0  0  0  0  0  0  0  0  0  0  0  0
    1.5900   -1.9987    1.1654 C   0  0  0  0  0  0  0  0  0  0  0  0
    2.0546    2.7221    1.9155 H   0  0  0  0  0  0  0  0  0  0  0  0
    3.1799    3.1361    0.6368 H   0  0  0  0  0  0  0  0  0  0  0  0
    1.4450    3.2933    0.3553 H   0  0  0  0  0  0  0  0  0  0  0  0
    2.9780    0.6974    0.8892 H   0  0  0  0  0  0  0  0  0  0  0  0
    2.7392    0.2518   -1.3919 H   0  0  0  0  0  0  0  0  0  0  0  0
    3.6041    1.6010   -1.1129 H   0  0  0  0  0  0  0  0  0  0  0  0
    1.4627    0.4552    2.5999 H   0  0  0  0  0  0  0  0  0  0  0  0
    0.2095    1.4510    2.3079 H   0  0  0  0  0  0  0  0  0  0  0  0
    0.4435    2.2899   -1.4950 H   0  0  0  0  0  0  0  0  0  0  0  0
   -1.6489    3.0487   -2.4849 H   0  0  0  0  0  0  0  0  0  0  0  0
   -3.8253    2.1741   -1.6795 H   0  0  0  0  0  0  0  0  0  0  0  0
   -3.8763    0.5020    0.1554 H   0  0  0  0  0  0  0  0  0  0  0  0
   -1.7799   -0.2772    1.1801 H   0  0  0  0  0  0  0  0  0  0  0  0
    0.3821   -0.8550   -1.8061 H   0  0  0  0  0  0  0  0  0  0  0  0
    0.8148   -3.1820   -2.4382 H   0  0  0  0  0  0  0  0  0  0  0  0
    1.7492   -4.7820   -0.7881 H   0  0  0  0  0  0  0  0  0  0  0  0
    2.2422   -4.0230    1.5205 H   0  0  0  0  0  0  0  0  0  0  0  0
    1.8146   -1.7090    2.1882 H   0  0  0  0  0  0  0  0  0  0  0  0
  1  2  1  0
  2  3  1  0
  2  4  1  0
  4  5  1  0
  4  6  1  0
  6  7  2  0
  7  8  1  0
  8  9  2  0
  9 10  1  0
 10 11  2  0
  4 12  1  0
 12 13  2  0
 13 14  1  0
 14 15  2  0
 15 16  1  0
 16 17  2  0
 11  6  1  0
 17 12  1  0
  1 18  1  0
  1 19  1  0
  1 20  1  0
  2 21  1  1
  3 22  1  0
  3 23  1  0
  5 24  1  0
  5 25  1  0
  7 26  1  0
  8 27  1  0
  9 28  1  0
 10 29  1  0
 11 30  1  0
 13 31  1  0
 14 32  1  0
 15 33  1  0
 16 34  1  0
 17 35  1  0
M  END
