
     RDKit          3D

 27 27  0  0  0  0  0  0  0  0999 V2000
   -1.1109   -2.3307   -1.6974 C   0  0  0  0  0  0  0  0  0  0  0  0
   -0.4484   -1.8026   -0.4593 C   0  0  0  0  0  0  0  0  0  0  0  0
   -1.0282   -0.7491    0.2593 C   0  0  0  0  0  0  0  0  0  0  0  0
   -0.4044   -0.2263    1.4016 C   0  0  0  0  0  0  0  0  0  0  0  0
   -1.0257    0.9290    2.1561 C   0  0  0  0  0  0  0  0  0  0  0  0
   -0.7259    2.3348    1.6023 C   0  0  2  0  0  0  0  0  0  0  0  0
   -1.2517    2.5556    0.2321 N   0  0  0  0  0  0  0  0  0  0  0  0
    0.7783    2.6624    1.6698 C   0  0  0  0  0  0  0  0  0  0  0  0
    1.5396    2.2761    0.5988 N   0  0  0  0  0  0  0  0  0  0  0  0
    1.3015    3.2202    2.6298 O   0  0  0  0  0  0  0  0  0  0  0  0
    0.8127   -0.7773    1.8235 C   0  0  0  0  0  0  0  0  0  0  0  0
    1.4031   -1.8163    1.1052 C   0  0  0  0  0  0  0  0  0  0  0  0
    0.7798   -2.3213   -0.0355 C   0  0  0  0  0  0  0  0  0  0  0  0
   -2.2008   -2.2616   -1.6165 H   0  0  0  0  0  0  0  0  0  0  0  0
   -0.7832   -1.7576   -2.5701 H   0  0  0  0  0  0  0  0  0  0  0  0
   -0.8637   -3.3860   -1.8539 H   0  0  0  0  0  0  0  0  0  0  0  0
   -1.9790   -0.3313   -0.0710 H   0  0  0  0  0  0  0  0  0  0  0  0
   -0.6936    0.8808    3.2021 H   0  0  0  0  0  0  0  0  0  0  0  0
   -2.1129    0.7763    2.1922 H   0  0  0  0  0  0  0  0  0  0  0  0
   -1.2296    3.0670    2.2457 H   0  0  0  0  0  0  0  0  0  0  0  0
   -0.7568    1.9444   -0.4149 H   0  0  0  0  0  0  0  0  0  0  0  0
   -1.0011    3.5048   -0.0505 H   0  0  0  0  0  0  0  0  0  0  0  0
    1.2596    1.4552    0.0756 H   0  0  0  0  0  0  0  0  0  0  0  0
    2.5372    2.3855    0.7328 H   0  0  0  0  0  0  0  0  0  0  0  0
    1.3125   -0.3966    2.7126 H   0  0  0  0  0  0  0  0  0  0  0  0
    2.3494   -2.2363    1.4372 H   0  0  0  0  0  0  0  0  0  0  0  0
    1.2536   -3.1311   -0.5862 H   0  0  0  0  0  0  0  0  0  0  0  0
  1  2  1  0
  2  3  2  0
  3  4  1  0
  4  5  1  0
  5  6  1  0
  6  7  1  0
  6  8  1  0
  8  9  1  0
  8 10  2  0
  4 11  2  0
 11 12  1  0
 12 13  2  0
 13  2  1  0
  1 14  1  0
  1 15  1  0
  1 16  1  0
  3 17  1  0
  5 18  1  0
  5 19  1  0
  6 20  1  1
  7 21  1  0
  7 22  1  0
  9 23  1  0
  9 24  1  0
 11 25  1  0
 12 26  1  0
 13 27  1  0
M  END
