
     RDKit          3D

 28 28  0  0  0  0  0  0  0  0999 V2000
    2.2746    1.9189    0.4161 N   0  0  0  0  0  0  0  0  0  0  0  0
    1.3497    2.1351   -0.6997 C   0  0  0  0  0  0  0  0  0  0  0  0
    0.2559    1.0366   -0.8075 C   0  0  2  0  0  0  0  0  0  0  0  0
   -0.4691    0.8970    0.4628 N   0  0  0  0  0  0  0  0  0  0  0  0
    0.8689   -0.3038   -1.2691 C   0  0  0  0  0  0  0  0  0  0  0  0
   -0.1508   -1.4264   -1.5123 C   0  0  0  0  0  0  0  0  0  0  0  0
   -0.4344   -2.2841   -0.3015 C   0  0  0  0  0  0  0  0  0  0  0  0
    0.5284   -3.1874    0.1711 C   0  0  0  0  0  0  0  0  0  0  0  0
    0.2670   -3.9842    1.2871 C   0  0  0  0  0  0  0  0  0  0  0  0
   -0.9591   -3.8871    1.9419 C   0  0  0  0  0  0  0  0  0  0  0  0
   -1.9235   -2.9929    1.4815 C   0  0  0  0  0  0  0  0  0  0  0  0
   -1.6631   -2.1965    0.3649 C   0  0  0  0  0  0  0  0  0  0  0  0
    1.7450    1.8664    1.2843 H   0  0  0  0  0  0  0  0  0  0  0  0
    2.8934    2.7238    0.5021 H   0  0  0  0  0  0  0  0  0  0  0  0
    1.9202    2.1875   -1.6336 H   0  0  0  0  0  0  0  0  0  0  0  0
    0.8658    3.1098   -0.5629 H   0  0  0  0  0  0  0  0  0  0  0  0
   -0.4655    1.3659   -1.5652 H   0  0  0  0  0  0  0  0  0  0  0  0
   -0.5933    1.8073    0.8987 H   0  0  0  0  0  0  0  0  0  0  0  0
    0.0956    0.3352    1.1020 H   0  0  0  0  0  0  0  0  0  0  0  0
    1.3758   -0.1145   -2.2251 H   0  0  0  0  0  0  0  0  0  0  0  0
    1.6484   -0.6336   -0.5711 H   0  0  0  0  0  0  0  0  0  0  0  0
    0.2423   -2.0929   -2.2920 H   0  0  0  0  0  0  0  0  0  0  0  0
   -1.0821   -1.0172   -1.9231 H   0  0  0  0  0  0  0  0  0  0  0  0
    1.4893   -3.2744   -0.3308 H   0  0  0  0  0  0  0  0  0  0  0  0
    1.0205   -4.6807    1.6444 H   0  0  0  0  0  0  0  0  0  0  0  0
   -1.1628   -4.5066    2.8108 H   0  0  0  0  0  0  0  0  0  0  0  0
   -2.8789   -2.9113    1.9925 H   0  0  0  0  0  0  0  0  0  0  0  0
   -2.4198   -1.4929    0.0244 H   0  0  0  0  0  0  0  0  0  0  0  0
  1  2  1  0
  2  3  1  0
  3  4  1  0
  3  5  1  0
  5  6  1  0
  6  7  1  0
  7  8  2  0
  8  9  1  0
  9 10  2  0
 10 11  1  0
 11 12  2  0
 12  7  1  0
  1 13  1  0
  1 14  1  0
  2 15  1  0
  2 16  1  0
  3 17  1  6
  4 18  1  0
  4 19  1  0
  5 20  1  0
  5 21  1  0
  6 22  1  0
  6 23  1  0
  8 24  1  0
  9 25  1  0
 10 26  1  0
 11 27  1  0
 12 28  1  0
M  END
