
     RDKit          3D

 23 23  0  0  0  0  0  0  0  0999 V2000
    1.4056   -0.0939    1.3262 C   0  0  0  0  0  0  0  0  0  0  0  0
    1.8985    0.2746   -0.0737 C   0  0  1  0  0  0  0  0  0  0  0  0
    3.3649    0.1867   -0.0876 N   0  0  0  0  0  0  0  0  0  0  0  0
    1.3132   -0.6491   -1.1623 C   0  0  0  0  0  0  0  0  0  0  0  0
   -0.1779   -0.4883   -1.3588 C   0  0  0  0  0  0  0  0  0  0  0  0
   -0.6906    0.6438   -2.0116 C   0  0  0  0  0  0  0  0  0  0  0  0
   -2.0669    0.7942   -2.1861 C   0  0  0  0  0  0  0  0  0  0  0  0
   -2.9294   -0.1853   -1.7095 C   0  0  0  0  0  0  0  0  0  0  0  0
   -4.2504   -0.0393   -1.8772 F   0  0  0  0  0  0  0  0  0  0  0  0
   -2.4422   -1.3138   -1.0619 C   0  0  0  0  0  0  0  0  0  0  0  0
   -1.0663   -1.4667   -0.8864 C   0  0  0  0  0  0  0  0  0  0  0  0
    1.8676    0.5463    2.0865 H   0  0  0  0  0  0  0  0  0  0  0  0
    0.3222    0.0377    1.4114 H   0  0  0  0  0  0  0  0  0  0  0  0
    1.6414   -1.1349    1.5740 H   0  0  0  0  0  0  0  0  0  0  0  0
    1.6203    1.3154   -0.2787 H   0  0  0  0  0  0  0  0  0  0  0  0
    3.7199    0.5138   -0.9856 H   0  0  0  0  0  0  0  0  0  0  0  0
    3.7513    0.8148    0.6167 H   0  0  0  0  0  0  0  0  0  0  0  0
    1.7977   -0.4430   -2.1268 H   0  0  0  0  0  0  0  0  0  0  0  0
    1.5475   -1.6975   -0.9338 H   0  0  0  0  0  0  0  0  0  0  0  0
   -0.0199    1.4120   -2.3903 H   0  0  0  0  0  0  0  0  0  0  0  0
   -2.4709    1.6658   -2.6906 H   0  0  0  0  0  0  0  0  0  0  0  0
   -3.1348   -2.0660   -0.6985 H   0  0  0  0  0  0  0  0  0  0  0  0
   -0.6908   -2.3518   -0.3770 H   0  0  0  0  0  0  0  0  0  0  0  0
  1  2  1  0
  2  3  1  0
  2  4  1  0
  4  5  1  0
  5  6  2  0
  6  7  1  0
  7  8  2  0
  8  9  1  0
  8 10  1  0
 10 11  2  0
 11  5  1  0
  1 12  1  0
  1 13  1  0
  1 14  1  0
  2 15  1  6
  3 16  1  0
  3 17  1  0
  4 18  1  0
  4 19  1  0
  6 20  1  0
  7 21  1  0
 10 22  1  0
 11 23  1  0
M  END
