
     RDKit          3D

 53 54  0  0  0  0  0  0  0  0999 V2000
    3.0980    2.9186   -0.3521 C   0  0  0  0  0  0  0  0  0  0  0  0
    1.5975    2.6108   -0.4980 C   0  0  0  0  0  0  0  0  0  0  0  0
    1.0103    3.5151   -1.5870 C   0  0  0  0  0  0  0  0  0  0  0  0
    1.3389    1.0699   -0.6885 C   0  0  2  0  0  0  0  0  0  0  0  0
    1.9247    0.6314   -1.9935 N   0  0  0  0  0  0  0  0  0  0  0  0
   -0.2035    0.5796   -0.5318 C   0  0  0  0  0  0  0  0  0  0  0  0
   -0.8780    0.8541   -1.8350 N   0  0  0  0  0  0  0  0  0  0  0  0
   -0.8621    1.3445    0.6443 C   0  0  0  0  0  0  0  0  0  0  0  0
   -1.8567    2.3203    0.4500 C   0  0  0  0  0  0  0  0  0  0  0  0
   -2.4320    3.0031    1.5310 C   0  0  0  0  0  0  0  0  0  0  0  0
   -3.4568    4.0721    1.2895 C   0  0  0  0  0  0  0  0  0  0  0  0
   -1.9946    2.7220    2.8297 C   0  0  0  0  0  0  0  0  0  0  0  0
   -1.0182    1.7479    3.0599 C   0  0  0  0  0  0  0  0  0  0  0  0
   -0.5372    1.4669    4.4526 C   0  0  0  0  0  0  0  0  0  0  0  0
   -0.4522    1.0776    1.9678 C   0  0  0  0  0  0  0  0  0  0  0  0
   -0.3656   -0.9605   -0.2970 C   0  0  0  0  0  0  0  0  0  0  0  0
   -1.6342   -1.4818    0.0505 C   0  0  0  0  0  0  0  0  0  0  0  0
   -1.8426   -2.8514    0.2629 C   0  0  0  0  0  0  0  0  0  0  0  0
   -3.2099   -3.3655    0.6037 C   0  0  0  0  0  0  0  0  0  0  0  0
   -0.7738   -3.7345    0.0960 C   0  0  0  0  0  0  0  0  0  0  0  0
    0.4951   -3.2576   -0.2456 C   0  0  0  0  0  0  0  0  0  0  0  0
    1.6319   -4.2141   -0.4594 C   0  0  0  0  0  0  0  0  0  0  0  0
    0.6842   -1.8813   -0.4513 C   0  0  0  0  0  0  0  0  0  0  0  0
    3.6420    2.7823   -1.2918 H   0  0  0  0  0  0  0  0  0  0  0  0
    3.2441    3.9586   -0.0391 H   0  0  0  0  0  0  0  0  0  0  0  0
    3.5563    2.2790    0.4093 H   0  0  0  0  0  0  0  0  0  0  0  0
    1.1533    2.9207    0.4541 H   0  0  0  0  0  0  0  0  0  0  0  0
   -0.0708    3.3970   -1.6797 H   0  0  0  0  0  0  0  0  0  0  0  0
    1.1945    4.5679   -1.3440 H   0  0  0  0  0  0  0  0  0  0  0  0
    1.4627    3.3258   -2.5654 H   0  0  0  0  0  0  0  0  0  0  0  0
    1.9148    0.5666    0.1000 H   0  0  0  0  0  0  0  0  0  0  0  0
    2.8895    0.9475   -2.0577 H   0  0  0  0  0  0  0  0  0  0  0  0
    1.4199    1.1262   -2.7307 H   0  0  0  0  0  0  0  0  0  0  0  0
   -1.8230    0.4803   -1.7754 H   0  0  0  0  0  0  0  0  0  0  0  0
   -0.4036    0.2511   -2.5103 H   0  0  0  0  0  0  0  0  0  0  0  0
   -2.1822    2.5702   -0.5580 H   0  0  0  0  0  0  0  0  0  0  0  0
   -4.1381    4.1610    2.1422 H   0  0  0  0  0  0  0  0  0  0  0  0
   -4.0666    3.8366    0.4109 H   0  0  0  0  0  0  0  0  0  0  0  0
   -2.9620    5.0350    1.1302 H   0  0  0  0  0  0  0  0  0  0  0  0
   -2.4198    3.2670    3.6703 H   0  0  0  0  0  0  0  0  0  0  0  0
   -0.2335    0.4199    4.5566 H   0  0  0  0  0  0  0  0  0  0  0  0
   -1.3309    1.6482    5.1850 H   0  0  0  0  0  0  0  0  0  0  0  0
    0.3165    2.1091    4.6901 H   0  0  0  0  0  0  0  0  0  0  0  0
    0.3185    0.3294    2.1507 H   0  0  0  0  0  0  0  0  0  0  0  0
   -2.4795   -0.8041    0.1677 H   0  0  0  0  0  0  0  0  0  0  0  0
   -3.1466   -4.2888    1.1891 H   0  0  0  0  0  0  0  0  0  0  0  0
   -3.7732   -3.5660   -0.3127 H   0  0  0  0  0  0  0  0  0  0  0  0
   -3.7612   -2.6367    1.2072 H   0  0  0  0  0  0  0  0  0  0  0  0
   -0.9302   -4.8027    0.2314 H   0  0  0  0  0  0  0  0  0  0  0  0
    1.5097   -5.1119    0.1557 H   0  0  0  0  0  0  0  0  0  0  0  0
    2.5855   -3.7556   -0.1769 H   0  0  0  0  0  0  0  0  0  0  0  0
    1.6782   -4.5105   -1.5118 H   0  0  0  0  0  0  0  0  0  0  0  0
    1.6749   -1.5489   -0.7494 H   0  0  0  0  0  0  0  0  0  0  0  0
  1  2  1  0
  2  3  1  0
  2  4  1  0
  4  5  1  0
  4  6  1  0
  6  7  1  0
  6  8  1  0
  8  9  2  0
  9 10  1  0
 10 11  1  0
 10 12  2  0
 12 13  1  0
 13 14  1  0
 13 15  2  0
  6 16  1  0
 16 17  2  0
 17 18  1  0
 18 19  1  0
 18 20  2  0
 20 21  1  0
 21 22  1  0
 21 23  2  0
 15  8  1  0
 23 16  1  0
  1 24  1  0
  1 25  1  0
  1 26  1  0
  2 27  1  0
  3 28  1  0
  3 29  1  0
  3 30  1  0
  4 31  1  1
  5 32  1  0
  5 33  1  0
  7 34  1  0
  7 35  1  0
  9 36  1  0
 11 37  1  0
 11 38  1  0
 11 39  1  0
 12 40  1  0
 14 41  1  0
 14 42  1  0
 14 43  1  0
 15 44  1  0
 17 45  1  0
 19 46  1  0
 19 47  1  0
 19 48  1  0
 20 49  1  0
 22 50  1  0
 22 51  1  0
 22 52  1  0
 23 53  1  0
M  END
