
     RDKit          3D

 53 52  0  0  0  0  0  0  0  0999 V2000
   -0.6366    2.5644    2.5610 C   0  0  0  0  0  0  0  0  0  0  0  0
    0.4082    2.2916    3.6309 C   0  0  0  0  0  0  0  0  0  0  0  0
    1.8257    2.1327    3.0759 C   0  0  0  0  0  0  0  0  0  0  0  0
    2.0253    0.9874    2.0768 C   0  0  0  0  0  0  0  0  0  0  0  0
    1.6794   -0.3874    2.6547 C   0  0  0  0  0  0  0  0  0  0  0  0
    2.1616   -1.5614    1.7938 C   0  0  0  0  0  0  0  0  0  0  0  0
    1.6795   -1.6019    0.3400 C   0  0  0  0  0  0  0  0  0  0  0  0
    0.3089   -2.2476    0.1057 C   0  0  0  0  0  0  0  0  0  0  0  0
   -0.8665   -1.4697    0.6975 C   0  0  0  0  0  0  0  0  0  0  0  0
   -2.2297   -1.9303    0.1691 C   0  0  0  0  0  0  0  0  0  0  0  0
   -2.5353   -1.5733   -1.2919 C   0  0  0  0  0  0  0  0  0  0  0  0
   -3.2486   -0.2307   -1.4956 C   0  0  0  0  0  0  0  0  0  0  0  0
   -2.4423    1.0326   -1.1786 C   0  0  0  0  0  0  0  0  0  0  0  0
   -1.1271    1.1941   -1.9666 C   0  0  2  0  0  0  0  0  0  0  0  0
   -0.4417    2.4211   -1.5123 N   0  0  0  0  0  0  0  0  0  0  0  0
   -1.3007    1.1948   -3.4939 C   0  0  0  0  0  0  0  0  0  0  0  0
   -2.3045    2.2010   -4.0163 C   0  0  0  0  0  0  0  0  0  0  0  0
   -2.0545    3.4977   -3.6781 N   0  0  0  0  0  0  0  0  0  0  0  0
   -3.2539    1.8977   -4.7297 O   0  0  0  0  0  0  0  0  0  0  0  0
   -0.7636    1.7035    1.8996 H   0  0  0  0  0  0  0  0  0  0  0  0
   -0.3613    3.4322    1.9536 H   0  0  0  0  0  0  0  0  0  0  0  0
   -1.6063    2.7699    3.0258 H   0  0  0  0  0  0  0  0  0  0  0  0
    0.1211    1.4038    4.2050 H   0  0  0  0  0  0  0  0  0  0  0  0
    0.4083    3.1296    4.3384 H   0  0  0  0  0  0  0  0  0  0  0  0
    2.5133    1.9909    3.9190 H   0  0  0  0  0  0  0  0  0  0  0  0
    2.1244    3.0705    2.5909 H   0  0  0  0  0  0  0  0  0  0  0  0
    3.0762    0.9931    1.7619 H   0  0  0  0  0  0  0  0  0  0  0  0
    1.4294    1.1816    1.1788 H   0  0  0  0  0  0  0  0  0  0  0  0
    2.1498   -0.4867    3.6415 H   0  0  0  0  0  0  0  0  0  0  0  0
    0.6030   -0.4590    2.8251 H   0  0  0  0  0  0  0  0  0  0  0  0
    3.2592   -1.5235    1.7775 H   0  0  0  0  0  0  0  0  0  0  0  0
    1.9006   -2.5021    2.2940 H   0  0  0  0  0  0  0  0  0  0  0  0
    1.7080   -0.6084   -0.1187 H   0  0  0  0  0  0  0  0  0  0  0  0
    2.4062   -2.2049   -0.2214 H   0  0  0  0  0  0  0  0  0  0  0  0
    0.3092   -3.2678    0.5089 H   0  0  0  0  0  0  0  0  0  0  0  0
    0.1835   -2.3481   -0.9777 H   0  0  0  0  0  0  0  0  0  0  0  0
   -0.7308   -0.3993    0.5342 H   0  0  0  0  0  0  0  0  0  0  0  0
   -0.8735   -1.6273    1.7816 H   0  0  0  0  0  0  0  0  0  0  0  0
   -3.0177   -1.5249    0.8154 H   0  0  0  0  0  0  0  0  0  0  0  0
   -2.2811   -3.0217    0.2755 H   0  0  0  0  0  0  0  0  0  0  0  0
   -3.2176   -2.3452   -1.6731 H   0  0  0  0  0  0  0  0  0  0  0  0
   -1.6437   -1.6349   -1.9215 H   0  0  0  0  0  0  0  0  0  0  0  0
   -4.1597   -0.2190   -0.8837 H   0  0  0  0  0  0  0  0  0  0  0  0
   -3.5945   -0.1813   -2.5351 H   0  0  0  0  0  0  0  0  0  0  0  0
   -3.0908    1.8992   -1.3641 H   0  0  0  0  0  0  0  0  0  0  0  0
   -2.2375    1.0575   -0.1020 H   0  0  0  0  0  0  0  0  0  0  0  0
   -0.4610    0.3614   -1.7154 H   0  0  0  0  0  0  0  0  0  0  0  0
   -0.3137    2.3718   -0.4992 H   0  0  0  0  0  0  0  0  0  0  0  0
    0.5046    2.4331   -1.8998 H   0  0  0  0  0  0  0  0  0  0  0  0
   -1.6209    0.2007   -3.8282 H   0  0  0  0  0  0  0  0  0  0  0  0
   -0.3408    1.3880   -3.9897 H   0  0  0  0  0  0  0  0  0  0  0  0
   -1.5046    3.6574   -2.8342 H   0  0  0  0  0  0  0  0  0  0  0  0
   -2.7795    4.1668   -3.8972 H   0  0  0  0  0  0  0  0  0  0  0  0
  1  2  1  0
  2  3  1  0
  3  4  1  0
  4  5  1  0
  5  6  1  0
  6  7  1  0
  7  8  1  0
  8  9  1  0
  9 10  1  0
 10 11  1  0
 11 12  1  0
 12 13  1  0
 13 14  1  0
 14 15  1  0
 14 16  1  0
 16 17  1  0
 17 18  1  0
 17 19  2  0
  1 20  1  0
  1 21  1  0
  1 22  1  0
  2 23  1  0
  2 24  1  0
  3 25  1  0
  3 26  1  0
  4 27  1  0
  4 28  1  0
  5 29  1  0
  5 30  1  0
  6 31  1  0
  6 32  1  0
  7 33  1  0
  7 34  1  0
  8 35  1  0
  8 36  1  0
  9 37  1  0
  9 38  1  0
 10 39  1  0
 10 40  1  0
 11 41  1  0
 11 42  1  0
 12 43  1  0
 12 44  1  0
 13 45  1  0
 13 46  1  0
 14 47  1  6
 15 48  1  0
 15 49  1  0
 16 50  1  0
 16 51  1  0
 18 52  1  0
 18 53  1  0
M  END
