
     RDKit          3D

 23 23  0  0  0  0  0  0  0  0999 V2000
    0.3720   -1.7799    1.2164 C   0  0  0  0  0  0  0  0  0  0  0  0
    0.9436   -0.4270    0.8107 C   0  0  0  0  0  0  0  0  0  0  0  0
    1.6366   -0.3813   -0.5674 C   0  0  1  0  0  0  0  0  0  0  0  0
    2.8153   -1.2633   -0.5856 N   0  0  0  0  0  0  0  0  0  0  0  0
    0.7141   -0.7207   -1.7602 C   0  0  0  0  0  0  0  0  0  0  0  0
   -0.3947    0.2791   -1.9492 C   0  0  0  0  0  0  0  0  0  0  0  0
   -0.2984    1.5839   -2.3933 C   0  0  0  0  0  0  0  0  0  0  0  0
   -1.5654    2.2322   -2.4527 C   0  0  0  0  0  0  0  0  0  0  0  0
   -2.5886    1.3987   -2.0618 C   0  0  0  0  0  0  0  0  0  0  0  0
   -2.0218   -0.1551   -1.6310 S   0  0  0  0  0  0  0  0  0  0  0  0
    1.1522   -2.5436    1.2844 H   0  0  0  0  0  0  0  0  0  0  0  0
   -0.3913   -2.1255    0.5145 H   0  0  0  0  0  0  0  0  0  0  0  0
   -0.0984   -1.7021    2.2023 H   0  0  0  0  0  0  0  0  0  0  0  0
    1.6625   -0.1147    1.5798 H   0  0  0  0  0  0  0  0  0  0  0  0
    0.1391    0.3174    0.8403 H   0  0  0  0  0  0  0  0  0  0  0  0
    2.0129    0.6407   -0.7047 H   0  0  0  0  0  0  0  0  0  0  0  0
    3.4017   -1.0634    0.2244 H   0  0  0  0  0  0  0  0  0  0  0  0
    2.5246   -2.2356   -0.4898 H   0  0  0  0  0  0  0  0  0  0  0  0
    1.3108   -0.7244   -2.6835 H   0  0  0  0  0  0  0  0  0  0  0  0
    0.3152   -1.7379   -1.6634 H   0  0  0  0  0  0  0  0  0  0  0  0
    0.6405    2.0533   -2.6628 H   0  0  0  0  0  0  0  0  0  0  0  0
   -1.7185    3.2563   -2.7697 H   0  0  0  0  0  0  0  0  0  0  0  0
   -3.6449    1.6245   -2.0124 H   0  0  0  0  0  0  0  0  0  0  0  0
  1  2  1  0
  2  3  1  0
  3  4  1  0
  3  5  1  0
  5  6  1  0
  6  7  2  0
  7  8  1  0
  8  9  2  0
  9 10  1  0
 10  6  1  0
  1 11  1  0
  1 12  1  0
  1 13  1  0
  2 14  1  0
  2 15  1  0
  3 16  1  6
  4 17  1  0
  4 18  1  0
  5 19  1  0
  5 20  1  0
  7 21  1  0
  8 22  1  0
  9 23  1  0
M  END
