
     RDKit          3D

 25 25  0  0  0  0  0  0  0  0999 V2000
    1.2126   -0.4231    0.2036 N   0  0  0  0  0  0  0  0  0  0  0  0
    0.1815    0.1888   -0.6597 C   0  0  2  0  0  0  0  0  0  0  0  0
    0.7656    0.9888   -1.8356 C   0  0  0  0  0  0  0  0  0  0  0  0
    1.7233   -0.0745   -2.9686 S   0  0  0  0  0  0  0  0  0  0  0  0
   -0.6788    1.1239    0.2100 C   0  0  0  0  0  0  0  0  0  0  0  0
   -0.2243    2.2288    0.5435 O   0  0  0  0  0  0  0  0  0  0  0  0
   -2.0992    0.5791    0.5992 C   0  0  0  0  0  0  0  0  0  0  0  0
   -2.1901   -0.8720    1.1785 C   0  0  0  0  0  0  0  0  0  0  0  0
   -3.3157   -0.5080    2.1712 C   0  0  0  0  0  0  0  0  0  0  0  0
   -2.7049    1.2036    2.2398 S   0  0  0  0  0  0  0  0  0  0  0  0
   -3.0245    0.9164   -0.6215 C   0  0  0  0  0  0  0  0  0  0  0  0
   -4.0825    1.7602   -0.3960 N   0  0  0  0  0  0  0  0  0  0  0  0
   -2.8515    0.4803   -1.7636 O   0  0  0  0  0  0  0  0  0  0  0  0
    1.7602    0.3308    0.6307 H   0  0  0  0  0  0  0  0  0  0  0  0
    1.8802   -0.9110   -0.4005 H   0  0  0  0  0  0  0  0  0  0  0  0
   -0.4582   -0.6097   -1.0511 H   0  0  0  0  0  0  0  0  0  0  0  0
    1.4314    1.7824   -1.4784 H   0  0  0  0  0  0  0  0  0  0  0  0
   -0.0357    1.4689   -2.4077 H   0  0  0  0  0  0  0  0  0  0  0  0
    0.6843   -0.7965   -3.4162 H   0  0  0  0  0  0  0  0  0  0  0  0
   -2.4721   -1.6430    0.4523 H   0  0  0  0  0  0  0  0  0  0  0  0
   -1.2713   -1.2188    1.6710 H   0  0  0  0  0  0  0  0  0  0  0  0
   -4.3250   -0.5958    1.7551 H   0  0  0  0  0  0  0  0  0  0  0  0
   -3.2827   -1.0594    3.1150 H   0  0  0  0  0  0  0  0  0  0  0  0
   -4.6307    2.0731   -1.1867 H   0  0  0  0  0  0  0  0  0  0  0  0
   -4.1815    2.2437    0.4912 H   0  0  0  0  0  0  0  0  0  0  0  0
  1  2  1  0
  2  3  1  0
  3  4  1  0
  2  5  1  0
  5  6  2  0
  5  7  1  0
  7  8  1  0
  8  9  1  0
  9 10  1  0
  7 11  1  0
 11 12  1  0
 11 13  2  0
 10  7  1  0
  1 14  1  0
  1 15  1  0
  2 16  1  6
  3 17  1  0
  3 18  1  0
  4 19  1  0
  8 20  1  0
  8 21  1  0
  9 22  1  0
  9 23  1  0
 12 24  1  0
 12 25  1  0
M  END
