
     RDKit          3D

 27 27  0  0  0  0  0  0  0  0999 V2000
   -0.1138   -0.0944   -2.7256 N   0  0  0  0  0  0  0  0  0  0  0  0
    0.1337   -1.3727   -2.0136 C   0  0  1  0  0  0  0  0  0  0  0  0
    1.5887   -1.4783   -1.5107 C   0  0  0  0  0  0  0  0  0  0  0  0
    1.9594   -0.5509   -0.3779 C   0  0  0  0  0  0  0  0  0  0  0  0
    1.9136   -0.9823    0.9545 C   0  0  0  0  0  0  0  0  0  0  0  0
    2.2409   -0.1078    1.9927 C   0  0  0  0  0  0  0  0  0  0  0  0
    2.6303    1.2000    1.7109 C   0  0  0  0  0  0  0  0  0  0  0  0
    2.6928    1.6356    0.3909 C   0  0  0  0  0  0  0  0  0  0  0  0
    2.3602    0.7657   -0.6484 C   0  0  0  0  0  0  0  0  0  0  0  0
   -0.9118   -1.5466   -0.8949 C   0  0  0  0  0  0  0  0  0  0  0  0
   -1.6962   -0.6383   -0.5947 O   0  0  0  0  0  0  0  0  0  0  0  0
   -0.9808   -2.8926   -0.2169 C   0  0  0  0  0  0  0  0  0  0  0  0
   -1.9765   -3.9768   -1.2130 Cl  0  0  0  0  0  0  0  0  0  0  0  0
   -1.6034   -2.8161    1.1456 C   0  0  0  0  0  0  0  0  0  0  0  0
   -1.0306   -3.2102    2.1603 O   0  0  0  0  0  0  0  0  0  0  0  0
   -1.1015   -0.0578   -2.9902 H   0  0  0  0  0  0  0  0  0  0  0  0
   -0.0338    0.6610   -2.0382 H   0  0  0  0  0  0  0  0  0  0  0  0
   -0.0358   -2.1703   -2.7475 H   0  0  0  0  0  0  0  0  0  0  0  0
    1.7992   -2.5113   -1.2088 H   0  0  0  0  0  0  0  0  0  0  0  0
    2.2737   -1.2954   -2.3500 H   0  0  0  0  0  0  0  0  0  0  0  0
    1.6231   -1.9984    1.2150 H   0  0  0  0  0  0  0  0  0  0  0  0
    2.1931   -0.4480    3.0248 H   0  0  0  0  0  0  0  0  0  0  0  0
    2.8879    1.8762    2.5218 H   0  0  0  0  0  0  0  0  0  0  0  0
    2.9971    2.6555    0.1720 H   0  0  0  0  0  0  0  0  0  0  0  0
    2.4189    1.1212   -1.6764 H   0  0  0  0  0  0  0  0  0  0  0  0
    0.0136   -3.3315   -0.1174 H   0  0  0  0  0  0  0  0  0  0  0  0
   -2.6198   -2.3863    1.1972 H   0  0  0  0  0  0  0  0  0  0  0  0
  1  2  1  0
  2  3  1  0
  3  4  1  0
  4  5  2  0
  5  6  1  0
  6  7  2  0
  7  8  1  0
  8  9  2  0
  2 10  1  0
 10 11  2  0
 10 12  1  0
 12 13  1  0
 12 14  1  0
 14 15  2  0
  9  4  1  0
  1 16  1  0
  1 17  1  0
  2 18  1  6
  3 19  1  0
  3 20  1  0
  5 21  1  0
  6 22  1  0
  7 23  1  0
  8 24  1  0
  9 25  1  0
 12 26  1  0
 14 27  1  0
M  END
