
     RDKit          3D

 27 27  0  0  0  0  0  0  0  0999 V2000
    2.3517   -1.8531   -1.8129 N   0  0  0  0  0  0  0  0  0  0  0  0
    1.2952   -1.0725   -1.1359 C   0  0  1  0  0  0  0  0  0  0  0  0
    1.7653   -0.7910    0.3121 C   0  0  0  0  0  0  0  0  0  0  0  0
    0.7034   -0.2353    1.2197 C   0  0  0  0  0  0  0  0  0  0  0  0
    0.8452    0.8764    1.9529 C   0  0  0  0  0  0  0  0  0  0  0  0
    1.0005    0.2088   -1.9555 C   0  0  0  0  0  0  0  0  0  0  0  0
   -0.3111    0.8946   -1.6470 C   0  0  0  0  0  0  0  0  0  0  0  0
   -0.3265    2.2129   -1.1685 C   0  0  0  0  0  0  0  0  0  0  0  0
   -1.5364    2.8533   -0.8906 C   0  0  0  0  0  0  0  0  0  0  0  0
   -2.7384    2.1819   -1.0984 C   0  0  0  0  0  0  0  0  0  0  0  0
   -4.2288    2.9701   -0.7550 Cl  0  0  0  0  0  0  0  0  0  0  0  0
   -2.7415    0.8776   -1.5862 C   0  0  0  0  0  0  0  0  0  0  0  0
   -1.5315    0.2372   -1.8636 C   0  0  0  0  0  0  0  0  0  0  0  0
    3.1984   -1.2904   -1.8929 H   0  0  0  0  0  0  0  0  0  0  0  0
    2.0616   -2.0677   -2.7665 H   0  0  0  0  0  0  0  0  0  0  0  0
    0.4050   -1.7118   -1.1010 H   0  0  0  0  0  0  0  0  0  0  0  0
    2.1024   -1.7339    0.7641 H   0  0  0  0  0  0  0  0  0  0  0  0
    2.6407   -0.1282    0.2942 H   0  0  0  0  0  0  0  0  0  0  0  0
   -0.2292   -0.7927    1.2847 H   0  0  0  0  0  0  0  0  0  0  0  0
    1.7577    1.4632    1.9330 H   0  0  0  0  0  0  0  0  0  0  0  0
    0.0393    1.2228    2.5929 H   0  0  0  0  0  0  0  0  0  0  0  0
    0.9712   -0.0371   -3.0266 H   0  0  0  0  0  0  0  0  0  0  0  0
    1.8331    0.9158   -1.8414 H   0  0  0  0  0  0  0  0  0  0  0  0
    0.6051    2.7480   -0.9974 H   0  0  0  0  0  0  0  0  0  0  0  0
   -1.5324    3.8716   -0.5120 H   0  0  0  0  0  0  0  0  0  0  0  0
   -3.6791    0.3549   -1.7542 H   0  0  0  0  0  0  0  0  0  0  0  0
   -1.5496   -0.7787   -2.2523 H   0  0  0  0  0  0  0  0  0  0  0  0
  1  2  1  0
  2  3  1  0
  3  4  1  0
  4  5  2  3
  2  6  1  0
  6  7  1  0
  7  8  2  0
  8  9  1  0
  9 10  2  0
 10 11  1  0
 10 12  1  0
 12 13  2  0
 13  7  1  0
  1 14  1  0
  1 15  1  0
  2 16  1  1
  3 17  1  0
  3 18  1  0
  4 19  1  0
  5 20  1  0
  5 21  1  0
  6 22  1  0
  6 23  1  0
  8 24  1  0
  9 25  1  0
 12 26  1  0
 13 27  1  0
M  END
