
     RDKit          3D

 30 30  0  0  0  0  0  0  0  0999 V2000
    1.6775   -0.0210   -0.9379 C   0  0  0  0  0  0  0  0  0  0  0  0
    0.4703    0.9113   -1.1423 C   0  0  1  0  0  0  0  0  0  0  0  0
    0.2626    1.0519   -2.5928 N   0  0  0  0  0  0  0  0  0  0  0  0
   -0.8283    0.2939   -0.5601 C   0  0  0  0  0  0  0  0  0  0  0  0
   -0.8150    0.0376    0.9539 C   0  0  0  0  0  0  0  0  0  0  0  0
   -2.1049   -0.5961    1.4200 C   0  0  0  0  0  0  0  0  0  0  0  0
   -2.2114   -1.9878    1.5427 C   0  0  0  0  0  0  0  0  0  0  0  0
   -3.4092   -2.5708    1.9596 C   0  0  0  0  0  0  0  0  0  0  0  0
   -4.5112   -1.7695    2.2527 C   0  0  0  0  0  0  0  0  0  0  0  0
   -4.4176   -0.3847    2.1272 C   0  0  0  0  0  0  0  0  0  0  0  0
   -3.2208    0.2001    1.7108 C   0  0  0  0  0  0  0  0  0  0  0  0
    0.7674    2.2583   -0.5081 C   0  0  0  0  0  0  0  0  0  0  0  0
    0.6548    3.4707   -1.0721 C   0  0  0  0  0  0  0  0  0  0  0  0
    2.5719    0.3634   -1.4445 H   0  0  0  0  0  0  0  0  0  0  0  0
    1.4787   -1.0241   -1.3335 H   0  0  0  0  0  0  0  0  0  0  0  0
    1.9372   -0.1283    0.1212 H   0  0  0  0  0  0  0  0  0  0  0  0
    1.1282    1.3776   -3.0206 H   0  0  0  0  0  0  0  0  0  0  0  0
    0.0731    0.1388   -3.0018 H   0  0  0  0  0  0  0  0  0  0  0  0
   -1.0361   -0.6578   -1.0711 H   0  0  0  0  0  0  0  0  0  0  0  0
   -1.6786    0.9501   -0.7981 H   0  0  0  0  0  0  0  0  0  0  0  0
   -0.6661    0.9715    1.5083 H   0  0  0  0  0  0  0  0  0  0  0  0
    0.0191   -0.6175    1.2295 H   0  0  0  0  0  0  0  0  0  0  0  0
   -1.3621   -2.6269    1.3133 H   0  0  0  0  0  0  0  0  0  0  0  0
   -3.4831   -3.6509    2.0539 H   0  0  0  0  0  0  0  0  0  0  0  0
   -5.4438   -2.2241    2.5760 H   0  0  0  0  0  0  0  0  0  0  0  0
   -5.2776    0.2408    2.3509 H   0  0  0  0  0  0  0  0  0  0  0  0
   -3.1633    1.2818    1.6108 H   0  0  0  0  0  0  0  0  0  0  0  0
    1.1098    2.2283    0.5258 H   0  0  0  0  0  0  0  0  0  0  0  0
    0.3031    3.5982   -2.0913 H   0  0  0  0  0  0  0  0  0  0  0  0
    0.8959    4.3690   -0.5132 H   0  0  0  0  0  0  0  0  0  0  0  0
  1  2  1  0
  2  3  1  6
  2  4  1  0
  4  5  1  0
  5  6  1  0
  6  7  2  0
  7  8  1  0
  8  9  2  0
  9 10  1  0
 10 11  2  0
  2 12  1  0
 12 13  2  3
 11  6  1  0
  1 14  1  0
  1 15  1  0
  1 16  1  0
  3 17  1  0
  3 18  1  0
  4 19  1  0
  4 20  1  0
  5 21  1  0
  5 22  1  0
  7 23  1  0
  8 24  1  0
  9 25  1  0
 10 26  1  0
 11 27  1  0
 12 28  1  0
 13 29  1  0
 13 30  1  0
M  END
