
     RDKit          3D

 44 45  0  0  0  0  0  0  0  0999 V2000
    2.2603    3.7399   -1.6517 C   0  0  0  0  0  0  0  0  0  0  0  0
    1.1069    2.7076   -1.8210 C   0  0  0  0  0  0  0  0  0  0  0  0
    1.3125    2.0431   -3.1983 C   0  0  0  0  0  0  0  0  0  0  0  0
   -0.1884    3.5408   -1.8834 C   0  0  0  0  0  0  0  0  0  0  0  0
    1.1374    1.6844   -0.5904 C   0  0  2  0  0  0  0  0  0  0  0  0
    2.4181    0.9220   -0.5978 N   0  0  0  0  0  0  0  0  0  0  0  0
   -0.1613    0.7328   -0.2656 C   0  0  0  0  0  0  0  0  0  0  0  0
   -1.3196    1.6214    0.0248 N   0  0  0  0  0  0  0  0  0  0  0  0
   -0.4632   -0.1969   -1.4721 C   0  0  0  0  0  0  0  0  0  0  0  0
   -1.5675    0.0063   -2.3230 C   0  0  0  0  0  0  0  0  0  0  0  0
   -1.8261   -0.8530   -3.3953 C   0  0  0  0  0  0  0  0  0  0  0  0
   -0.9909   -1.9390   -3.6388 C   0  0  0  0  0  0  0  0  0  0  0  0
    0.1006   -2.1706   -2.8082 C   0  0  0  0  0  0  0  0  0  0  0  0
    0.3593   -1.3118   -1.7369 C   0  0  0  0  0  0  0  0  0  0  0  0
   -0.0198   -0.1146    1.0514 C   0  0  0  0  0  0  0  0  0  0  0  0
   -0.9323   -1.1638    1.3152 C   0  0  0  0  0  0  0  0  0  0  0  0
   -0.8739   -1.9082    2.4965 C   0  0  0  0  0  0  0  0  0  0  0  0
    0.0883   -1.6148    3.4552 C   0  0  0  0  0  0  0  0  0  0  0  0
    0.9857   -0.5755    3.2336 C   0  0  0  0  0  0  0  0  0  0  0  0
    0.9272    0.1705    2.0507 C   0  0  0  0  0  0  0  0  0  0  0  0
    2.2141    4.2264   -0.6710 H   0  0  0  0  0  0  0  0  0  0  0  0
    2.2011    4.5291   -2.4111 H   0  0  0  0  0  0  0  0  0  0  0  0
    3.2482    3.2812   -1.7596 H   0  0  0  0  0  0  0  0  0  0  0  0
    1.3587    2.8014   -3.9900 H   0  0  0  0  0  0  0  0  0  0  0  0
    0.4958    1.3726   -3.4642 H   0  0  0  0  0  0  0  0  0  0  0  0
    2.2489    1.4794   -3.2515 H   0  0  0  0  0  0  0  0  0  0  0  0
   -0.1101    4.3376   -2.6335 H   0  0  0  0  0  0  0  0  0  0  0  0
   -0.3963    4.0256   -0.9235 H   0  0  0  0  0  0  0  0  0  0  0  0
   -1.0521    2.9391   -2.1750 H   0  0  0  0  0  0  0  0  0  0  0  0
    1.2158    2.3369    0.2917 H   0  0  0  0  0  0  0  0  0  0  0  0
    3.2088    1.5583   -0.6520 H   0  0  0  0  0  0  0  0  0  0  0  0
    2.4559    0.3495   -1.4399 H   0  0  0  0  0  0  0  0  0  0  0  0
   -2.1078    1.0293    0.2826 H   0  0  0  0  0  0  0  0  0  0  0  0
   -1.0977    2.1487    0.8686 H   0  0  0  0  0  0  0  0  0  0  0  0
   -2.2384    0.8484   -2.1690 H   0  0  0  0  0  0  0  0  0  0  0  0
   -2.6812   -0.6691   -4.0405 H   0  0  0  0  0  0  0  0  0  0  0  0
   -1.1939   -2.6067   -4.4715 H   0  0  0  0  0  0  0  0  0  0  0  0
    0.7486   -3.0249   -2.9856 H   0  0  0  0  0  0  0  0  0  0  0  0
    1.2036   -1.5359   -1.0863 H   0  0  0  0  0  0  0  0  0  0  0  0
   -1.7041   -1.4164    0.5897 H   0  0  0  0  0  0  0  0  0  0  0  0
   -1.5819   -2.7156    2.6635 H   0  0  0  0  0  0  0  0  0  0  0  0
    0.1384   -2.1926    4.3738 H   0  0  0  0  0  0  0  0  0  0  0  0
    1.7384   -0.3400    3.9818 H   0  0  0  0  0  0  0  0  0  0  0  0
    1.6496    0.9726    1.9334 H   0  0  0  0  0  0  0  0  0  0  0  0
  1  2  1  0
  2  3  1  0
  2  4  1  0
  2  5  1  0
  5  6  1  0
  5  7  1  0
  7  8  1  0
  7  9  1  0
  9 10  2  0
 10 11  1  0
 11 12  2  0
 12 13  1  0
 13 14  2  0
  7 15  1  0
 15 16  2  0
 16 17  1  0
 17 18  2  0
 18 19  1  0
 19 20  2  0
 14  9  1  0
 20 15  1  0
  1 21  1  0
  1 22  1  0
  1 23  1  0
  3 24  1  0
  3 25  1  0
  3 26  1  0
  4 27  1  0
  4 28  1  0
  4 29  1  0
  5 30  1  1
  6 31  1  0
  6 32  1  0
  8 33  1  0
  8 34  1  0
 10 35  1  0
 11 36  1  0
 12 37  1  0
 13 38  1  0
 14 39  1  0
 16 40  1  0
 17 41  1  0
 18 42  1  0
 19 43  1  0
 20 44  1  0
M  END
