
     RDKit          3D

 22 22  0  0  0  0  0  0  0  0999 V2000
    0.3084   -3.0407   -0.2330 N   0  0  0  0  0  0  0  0  0  0  0  0
   -0.8042   -2.8731    0.7239 C   0  0  1  0  0  0  0  0  0  0  0  0
   -0.4417   -1.9423    1.9049 C   0  0  0  0  0  0  0  0  0  0  0  0
   -0.0989   -0.5138    1.5437 C   0  0  0  0  0  0  0  0  0  0  0  0
    1.2093   -0.1445    1.2033 C   0  0  0  0  0  0  0  0  0  0  0  0
    1.5018    1.1797    0.8599 C   0  0  0  0  0  0  0  0  0  0  0  0
    0.4920    2.1498    0.8569 C   0  0  0  0  0  0  0  0  0  0  0  0
   -0.8111    1.7921    1.2034 C   0  0  0  0  0  0  0  0  0  0  0  0
   -1.0914    0.4727    1.5445 C   0  0  0  0  0  0  0  0  0  0  0  0
   -2.3442    0.1516    1.8938 F   0  0  0  0  0  0  0  0  0  0  0  0
    0.7981    3.5056    0.5068 C   0  0  0  0  0  0  0  0  0  0  0  0
    1.0543    4.6016    0.2253 N   0  0  0  0  0  0  0  0  0  0  0  0
   -2.0564   -2.4471    0.0517 C   0  0  0  0  0  0  0  0  0  0  0  0
   -3.0331   -2.1117   -0.4800 N   0  0  0  0  0  0  0  0  0  0  0  0
    0.4673   -2.1588   -0.7220 H   0  0  0  0  0  0  0  0  0  0  0  0
    1.1670   -3.2571    0.2684 H   0  0  0  0  0  0  0  0  0  0  0  0
   -0.9918   -3.8669    1.1498 H   0  0  0  0  0  0  0  0  0  0  0  0
   -1.2673   -1.9365    2.6300 H   0  0  0  0  0  0  0  0  0  0  0  0
    0.4096   -2.3713    2.4517 H   0  0  0  0  0  0  0  0  0  0  0  0
    2.0131   -0.8782    1.2073 H   0  0  0  0  0  0  0  0  0  0  0  0
    2.5240    1.4504    0.5976 H   0  0  0  0  0  0  0  0  0  0  0  0
   -1.6152    2.5233    1.2150 H   0  0  0  0  0  0  0  0  0  0  0  0
  1  2  1  0
  2  3  1  0
  3  4  1  0
  4  5  2  0
  5  6  1  0
  6  7  2  0
  7  8  1  0
  8  9  2  0
  9 10  1  0
  7 11  1  0
 11 12  3  0
  2 13  1  0
 13 14  3  0
  9  4  1  0
  1 15  1  0
  1 16  1  0
  2 17  1  1
  3 18  1  0
  3 19  1  0
  5 20  1  0
  6 21  1  0
  8 22  1  0
M  END
