
     RDKit          3D

 41 40  0  0  0  0  0  0  0  0999 V2000
   -3.4645    1.3116   -0.8821 C   0  0  0  0  0  0  0  0  0  0  0  0
   -3.7407    0.1058   -0.0011 C   0  0  0  0  0  0  0  0  0  0  0  0
   -2.4865   -0.5771    0.5519 C   0  0  0  0  0  0  0  0  0  0  0  0
   -1.5765   -1.2022   -0.5112 C   0  0  0  0  0  0  0  0  0  0  0  0
   -0.4177   -0.2879   -0.9219 C   0  0  0  0  0  0  0  0  0  0  0  0
    0.4680   -0.9597   -1.9744 C   0  0  0  0  0  0  0  0  0  0  0  0
    1.5819   -0.0513   -2.5044 C   0  0  0  0  0  0  0  0  0  0  0  0
    2.5728    0.4684   -1.4567 C   0  0  0  0  0  0  0  0  0  0  0  0
    3.3073   -0.6509   -0.7103 C   0  0  0  0  0  0  0  0  0  0  0  0
    4.4691   -0.1428    0.1653 C   0  0  2  0  0  0  0  0  0  0  0  0
    5.1799   -1.3198    0.6891 N   0  0  0  0  0  0  0  0  0  0  0  0
    3.9887    0.7615    1.3248 C   0  0  0  0  0  0  0  0  0  0  0  0
    5.1239    1.3619    2.1178 C   0  0  0  0  0  0  0  0  0  0  0  0
    5.3255    1.1431    3.4234 C   0  0  0  0  0  0  0  0  0  0  0  0
   -3.0036    1.0151   -1.8285 H   0  0  0  0  0  0  0  0  0  0  0  0
   -4.4023    1.8233   -1.1219 H   0  0  0  0  0  0  0  0  0  0  0  0
   -2.8079    2.0277   -0.3783 H   0  0  0  0  0  0  0  0  0  0  0  0
   -4.3409   -0.6209   -0.5615 H   0  0  0  0  0  0  0  0  0  0  0  0
   -4.3557    0.4300    0.8473 H   0  0  0  0  0  0  0  0  0  0  0  0
   -2.8286   -1.3821    1.2154 H   0  0  0  0  0  0  0  0  0  0  0  0
   -1.9245    0.1215    1.1831 H   0  0  0  0  0  0  0  0  0  0  0  0
   -1.1466   -2.1219   -0.0935 H   0  0  0  0  0  0  0  0  0  0  0  0
   -2.1609   -1.5019   -1.3890 H   0  0  0  0  0  0  0  0  0  0  0  0
   -0.7963    0.6584   -1.3190 H   0  0  0  0  0  0  0  0  0  0  0  0
    0.1765   -0.0493   -0.0325 H   0  0  0  0  0  0  0  0  0  0  0  0
   -0.1548   -1.2622   -2.8258 H   0  0  0  0  0  0  0  0  0  0  0  0
    0.8977   -1.8816   -1.5660 H   0  0  0  0  0  0  0  0  0  0  0  0
    1.1269    0.8110   -3.0078 H   0  0  0  0  0  0  0  0  0  0  0  0
    2.1369   -0.5990   -3.2764 H   0  0  0  0  0  0  0  0  0  0  0  0
    3.3082    1.1002   -1.9703 H   0  0  0  0  0  0  0  0  0  0  0  0
    2.0455    1.1178   -0.7507 H   0  0  0  0  0  0  0  0  0  0  0  0
    2.5966   -1.2074   -0.0865 H   0  0  0  0  0  0  0  0  0  0  0  0
    3.7006   -1.3595   -1.4517 H   0  0  0  0  0  0  0  0  0  0  0  0
    5.1683    0.4227   -0.4639 H   0  0  0  0  0  0  0  0  0  0  0  0
    5.9292   -1.0118    1.3094 H   0  0  0  0  0  0  0  0  0  0  0  0
    5.6272   -1.8188   -0.0780 H   0  0  0  0  0  0  0  0  0  0  0  0
    3.4061    1.6002    0.9280 H   0  0  0  0  0  0  0  0  0  0  0  0
    3.3139    0.1972    1.9817 H   0  0  0  0  0  0  0  0  0  0  0  0
    5.8019    2.0217    1.5808 H   0  0  0  0  0  0  0  0  0  0  0  0
    4.6711    0.4946    3.9983 H   0  0  0  0  0  0  0  0  0  0  0  0
    6.1553    1.6092    3.9454 H   0  0  0  0  0  0  0  0  0  0  0  0
  1  2  1  0
  2  3  1  0
  3  4  1  0
  4  5  1  0
  5  6  1  0
  6  7  1  0
  7  8  1  0
  8  9  1  0
  9 10  1  0
 10 11  1  0
 10 12  1  0
 12 13  1  0
 13 14  2  3
  1 15  1  0
  1 16  1  0
  1 17  1  0
  2 18  1  0
  2 19  1  0
  3 20  1  0
  3 21  1  0
  4 22  1  0
  4 23  1  0
  5 24  1  0
  5 25  1  0
  6 26  1  0
  6 27  1  0
  7 28  1  0
  7 29  1  0
  8 30  1  0
  8 31  1  0
  9 32  1  0
  9 33  1  0
 10 34  1  6
 11 35  1  0
 11 36  1  0
 12 37  1  0
 12 38  1  0
 13 39  1  0
 14 40  1  0
 14 41  1  0
M  END
