
     RDKit          3D

 30 30  0  0  0  0  0  0  0  0999 V2000
    3.4876   -0.0638    2.7875 N   0  0  0  0  0  0  0  0  0  0  0  0
    2.6196   -0.0757    1.5992 C   0  0  2  0  0  0  0  0  0  0  0  0
    1.1275   -0.0249    1.9961 C   0  0  0  0  0  0  0  0  0  0  0  0
    0.6913    1.2011    2.8106 C   0  0  0  0  0  0  0  0  0  0  0  0
    0.8848    2.5036    2.0877 C   0  0  0  0  0  0  0  0  0  0  0  0
   -0.1195    3.2823    1.6662 C   0  0  0  0  0  0  0  0  0  0  0  0
    2.9474   -1.3426    0.7721 C   0  0  0  0  0  0  0  0  0  0  0  0
    2.2829   -1.3823   -0.5853 C   0  0  0  0  0  0  0  0  0  0  0  0
    1.2494   -2.2920   -0.8473 C   0  0  0  0  0  0  0  0  0  0  0  0
    0.6334   -2.3218   -2.0996 C   0  0  0  0  0  0  0  0  0  0  0  0
    1.0454   -1.4455   -3.1018 C   0  0  0  0  0  0  0  0  0  0  0  0
    2.0749   -0.5399   -2.8537 C   0  0  0  0  0  0  0  0  0  0  0  0
    2.6920   -0.5087   -1.6023 C   0  0  0  0  0  0  0  0  0  0  0  0
    3.2132   -0.8117    3.4236 H   0  0  0  0  0  0  0  0  0  0  0  0
    3.3618    0.8078    3.2999 H   0  0  0  0  0  0  0  0  0  0  0  0
    2.8685    0.8073    1.0000 H   0  0  0  0  0  0  0  0  0  0  0  0
    0.5087   -0.0640    1.0908 H   0  0  0  0  0  0  0  0  0  0  0  0
    0.8775   -0.9241    2.5751 H   0  0  0  0  0  0  0  0  0  0  0  0
    1.2308    1.2420    3.7634 H   0  0  0  0  0  0  0  0  0  0  0  0
   -0.3670    1.0745    3.0736 H   0  0  0  0  0  0  0  0  0  0  0  0
    1.9078    2.8317    1.9148 H   0  0  0  0  0  0  0  0  0  0  0  0
   -1.1588    3.0070    1.8161 H   0  0  0  0  0  0  0  0  0  0  0  0
    0.0812    4.2181    1.1533 H   0  0  0  0  0  0  0  0  0  0  0  0
    4.0322   -1.4093    0.6083 H   0  0  0  0  0  0  0  0  0  0  0  0
    2.6798   -2.2417    1.3436 H   0  0  0  0  0  0  0  0  0  0  0  0
    0.9152   -2.9828   -0.0768 H   0  0  0  0  0  0  0  0  0  0  0  0
   -0.1680   -3.0298   -2.2934 H   0  0  0  0  0  0  0  0  0  0  0  0
    0.5658   -1.4698   -4.0766 H   0  0  0  0  0  0  0  0  0  0  0  0
    2.3993    0.1418   -3.6354 H   0  0  0  0  0  0  0  0  0  0  0  0
    3.4977    0.2005   -1.4250 H   0  0  0  0  0  0  0  0  0  0  0  0
  1  2  1  0
  2  3  1  0
  3  4  1  0
  4  5  1  0
  5  6  2  3
  2  7  1  0
  7  8  1  0
  8  9  2  0
  9 10  1  0
 10 11  2  0
 11 12  1  0
 12 13  2  0
 13  8  1  0
  1 14  1  0
  1 15  1  0
  2 16  1  6
  3 17  1  0
  3 18  1  0
  4 19  1  0
  4 20  1  0
  5 21  1  0
  6 22  1  0
  6 23  1  0
  7 24  1  0
  7 25  1  0
  9 26  1  0
 10 27  1  0
 11 28  1  0
 12 29  1  0
 13 30  1  0
M  END
