
     RDKit          3D

 18 17  0  0  0  0  0  0  0  0999 V2000
    1.2840   -1.6737    2.4463 C   0  0  0  0  0  0  0  0  0  0  0  0
    1.1302   -0.8898    1.1372 C   0  0  0  0  0  0  0  0  0  0  0  0
    1.8699   -1.6430    0.0225 C   0  0  0  0  0  0  0  0  0  0  0  0
   -0.3511   -0.6604    0.7585 C   0  0  1  0  0  0  0  0  0  0  0  0
   -1.0992    0.0306    1.8226 N   0  0  0  0  0  0  0  0  0  0  0  0
   -0.4555    0.2066   -0.4937 C   0  0  0  0  0  0  0  0  0  0  0  0
   -1.2259   -0.0369   -1.4198 O   0  0  0  0  0  0  0  0  0  0  0  0
    0.7503   -2.6291    2.4007 H   0  0  0  0  0  0  0  0  0  0  0  0
    0.9007   -1.1067    3.3003 H   0  0  0  0  0  0  0  0  0  0  0  0
    2.3391   -1.8859    2.6510 H   0  0  0  0  0  0  0  0  0  0  0  0
    1.6268    0.0816    1.2650 H   0  0  0  0  0  0  0  0  0  0  0  0
    1.8675   -1.0760   -0.9138 H   0  0  0  0  0  0  0  0  0  0  0  0
    2.9170   -1.8118    0.2965 H   0  0  0  0  0  0  0  0  0  0  0  0
    1.4096   -2.6184   -0.1689 H   0  0  0  0  0  0  0  0  0  0  0  0
   -0.8392   -1.6196    0.5479 H   0  0  0  0  0  0  0  0  0  0  0  0
   -1.1673   -0.5784    2.6376 H   0  0  0  0  0  0  0  0  0  0  0  0
   -2.0642    0.1595    1.5071 H   0  0  0  0  0  0  0  0  0  0  0  0
    0.1680    1.1178   -0.5015 H   0  0  0  0  0  0  0  0  0  0  0  0
  1  2  1  0
  2  3  1  0
  2  4  1  0
  4  5  1  0
  4  6  1  0
  6  7  2  0
  1  8  1  0
  1  9  1  0
  1 10  1  0
  2 11  1  0
  3 12  1  0
  3 13  1  0
  3 14  1  0
  4 15  1  6
  5 16  1  0
  5 17  1  0
  6 18  1  0
M  END
