
     RDKit          3D

 55 54  0  0  0  0  0  0  0  0999 V2000
   -3.7611   -0.0599    4.5740 C   0  0  0  0  0  0  0  0  0  0  0  0
   -2.8100    0.0920    3.4151 C   0  0  0  0  0  0  0  0  0  0  0  0
   -3.2834   -0.5599    2.1452 C   0  0  0  0  0  0  0  0  0  0  0  0
   -1.6491    0.7596    3.5667 C   0  0  0  0  0  0  0  0  0  0  0  0
   -0.5831    1.0208    2.5355 C   0  0  0  0  0  0  0  0  0  0  0  0
    0.7995    0.4697    2.9236 C   0  0  0  0  0  0  0  0  0  0  0  0
    0.9726   -1.0188    2.6710 C   0  0  0  0  0  0  0  0  0  0  0  0
    0.2716   -1.9355    3.6384 C   0  0  0  0  0  0  0  0  0  0  0  0
    1.7499   -1.4549    1.6581 C   0  0  0  0  0  0  0  0  0  0  0  0
    1.9795   -2.8868    1.2460 C   0  0  0  0  0  0  0  0  0  0  0  0
    1.8930   -3.1097   -0.2752 C   0  0  0  0  0  0  0  0  0  0  0  0
    0.6017   -2.6479   -0.9333 C   0  0  0  0  0  0  0  0  0  0  0  0
   -0.6598   -3.2857   -0.4133 C   0  0  0  0  0  0  0  0  0  0  0  0
    0.6392   -1.7334   -1.9241 C   0  0  0  0  0  0  0  0  0  0  0  0
   -0.5253   -1.1763   -2.6935 C   0  0  0  0  0  0  0  0  0  0  0  0
   -1.2478   -0.0198   -1.9903 C   0  0  0  0  0  0  0  0  0  0  0  0
   -0.6023    1.3875   -2.0890 C   0  0  1  0  0  0  0  0  0  0  0  0
    0.7473    1.4651   -1.3589 C   0  0  0  0  0  0  0  0  0  0  0  0
   -0.5511    1.8468   -3.5444 C   0  0  0  0  0  0  0  0  0  0  0  0
    0.5268    2.1901   -4.2659 C   0  0  0  0  0  0  0  0  0  0  0  0
   -1.5003    2.3162   -1.4209 N   0  0  0  0  0  4  0  0  0  0  0  0
   -2.2273    3.0601   -0.8772 C   0  0  0  0  0  3  0  0  0  0  0  0
   -3.9245   -1.1200    4.7919 H   0  0  0  0  0  0  0  0  0  0  0  0
   -3.3841    0.4121    5.4874 H   0  0  0  0  0  0  0  0  0  0  0  0
   -4.7260    0.3997    4.3352 H   0  0  0  0  0  0  0  0  0  0  0  0
   -3.4037   -1.6366    2.3014 H   0  0  0  0  0  0  0  0  0  0  0  0
   -4.2515   -0.1435    1.8480 H   0  0  0  0  0  0  0  0  0  0  0  0
   -2.6031   -0.4291    1.3028 H   0  0  0  0  0  0  0  0  0  0  0  0
   -1.4290    1.1910    4.5436 H   0  0  0  0  0  0  0  0  0  0  0  0
   -0.4980    2.1110    2.4393 H   0  0  0  0  0  0  0  0  0  0  0  0
   -0.8601    0.6551    1.5437 H   0  0  0  0  0  0  0  0  0  0  0  0
    1.0265    0.6916    3.9744 H   0  0  0  0  0  0  0  0  0  0  0  0
    1.5487    1.0245    2.3424 H   0  0  0  0  0  0  0  0  0  0  0  0
    0.2547   -1.4991    4.6431 H   0  0  0  0  0  0  0  0  0  0  0  0
   -0.7583   -2.1182    3.3191 H   0  0  0  0  0  0  0  0  0  0  0  0
    0.7767   -2.9006    3.7378 H   0  0  0  0  0  0  0  0  0  0  0  0
    2.2542   -0.7176    1.0341 H   0  0  0  0  0  0  0  0  0  0  0  0
    1.2769   -3.5672    1.7376 H   0  0  0  0  0  0  0  0  0  0  0  0
    2.9829   -3.1801    1.5787 H   0  0  0  0  0  0  0  0  0  0  0  0
    2.0189   -4.1812   -0.4784 H   0  0  0  0  0  0  0  0  0  0  0  0
    2.7553   -2.6167   -0.7445 H   0  0  0  0  0  0  0  0  0  0  0  0
   -0.5947   -4.3748   -0.5026 H   0  0  0  0  0  0  0  0  0  0  0  0
   -0.8168   -3.0309    0.6393 H   0  0  0  0  0  0  0  0  0  0  0  0
   -1.5563   -2.9669   -0.9504 H   0  0  0  0  0  0  0  0  0  0  0  0
    1.6107   -1.3545   -2.2391 H   0  0  0  0  0  0  0  0  0  0  0  0
   -1.2475   -1.9797   -2.8821 H   0  0  0  0  0  0  0  0  0  0  0  0
   -0.1805   -0.8755   -3.6890 H   0  0  0  0  0  0  0  0  0  0  0  0
   -1.4054   -0.2709   -0.9328 H   0  0  0  0  0  0  0  0  0  0  0  0
   -2.2588    0.0389   -2.4205 H   0  0  0  0  0  0  0  0  0  0  0  0
    1.0972    2.5024   -1.2893 H   0  0  0  0  0  0  0  0  0  0  0  0
    0.6575    1.0949   -0.3327 H   0  0  0  0  0  0  0  0  0  0  0  0
    1.5321    0.8911   -1.8583 H   0  0  0  0  0  0  0  0  0  0  0  0
   -1.5215    1.9075   -4.0396 H   0  0  0  0  0  0  0  0  0  0  0  0
    1.5358    2.1727   -3.8672 H   0  0  0  0  0  0  0  0  0  0  0  0
    0.4167    2.5092   -5.2994 H   0  0  0  0  0  0  0  0  0  0  0  0
  1  2  1  0
  2  3  1  0
  2  4  2  3
  4  5  1  0
  5  6  1  0
  6  7  1  0
  7  8  1  0
  7  9  2  0
  9 10  1  0
 10 11  1  0
 11 12  1  0
 12 13  1  0
 12 14  2  0
 14 15  1  0
 15 16  1  0
 16 17  1  0
 17 18  1  0
 17 19  1  0
 19 20  2  3
 17 21  1  1
 21 22  3  0
  1 23  1  0
  1 24  1  0
  1 25  1  0
  3 26  1  0
  3 27  1  0
  3 28  1  0
  4 29  1  0
  5 30  1  0
  5 31  1  0
  6 32  1  0
  6 33  1  0
  8 34  1  0
  8 35  1  0
  8 36  1  0
  9 37  1  0
 10 38  1  0
 10 39  1  0
 11 40  1  0
 11 41  1  0
 13 42  1  0
 13 43  1  0
 13 44  1  0
 14 45  1  0
 15 46  1  0
 15 47  1  0
 16 48  1  0
 16 49  1  0
 18 50  1  0
 18 51  1  0
 18 52  1  0
 19 53  1  0
 20 54  1  0
 20 55  1  0
M  CHG  2  21   1  22  -1
M  END
