
     RDKit          3D

 21 21  0  0  0  0  0  0  0  0999 V2000
   -2.4576    2.3649   -1.0040 N   0  0  0  0  0  0  0  0  0  0  0  0
   -1.4583    1.4701   -0.3763 C   0  0  1  0  0  0  0  0  0  0  0  0
   -0.9926    0.4225   -1.4078 C   0  0  0  0  0  0  0  0  0  0  0  0
   -0.2318   -0.7289   -0.7862 C   0  0  0  0  0  0  0  0  0  0  0  0
   -0.9244   -1.8120   -0.2254 C   0  0  0  0  0  0  0  0  0  0  0  0
   -0.2277   -2.8684    0.3651 C   0  0  0  0  0  0  0  0  0  0  0  0
    1.1646   -2.8445    0.3999 C   0  0  0  0  0  0  0  0  0  0  0  0
    2.1078   -4.2737    1.2004 Br  0  0  0  0  0  0  0  0  0  0  0  0
    1.8663   -1.7746   -0.1505 C   0  0  0  0  0  0  0  0  0  0  0  0
    1.1695   -0.7188   -0.7426 C   0  0  0  0  0  0  0  0  0  0  0  0
   -0.3036    2.2378    0.1525 C   0  0  0  0  0  0  0  0  0  0  0  0
    0.5872    2.8715    0.5444 N   0  0  0  0  0  0  0  0  0  0  0  0
   -2.7532    3.0603   -0.3167 H   0  0  0  0  0  0  0  0  0  0  0  0
   -2.0101    2.8944   -1.7538 H   0  0  0  0  0  0  0  0  0  0  0  0
   -1.9577    0.9652    0.4593 H   0  0  0  0  0  0  0  0  0  0  0  0
   -1.8622    0.0020   -1.9323 H   0  0  0  0  0  0  0  0  0  0  0  0
   -0.3762    0.8899   -2.1883 H   0  0  0  0  0  0  0  0  0  0  0  0
   -2.0122   -1.8438   -0.2479 H   0  0  0  0  0  0  0  0  0  0  0  0
   -0.7782   -3.7022    0.7929 H   0  0  0  0  0  0  0  0  0  0  0  0
    2.9527   -1.7504   -0.1227 H   0  0  0  0  0  0  0  0  0  0  0  0
    1.7329    0.1118   -1.1645 H   0  0  0  0  0  0  0  0  0  0  0  0
  1  2  1  0
  2  3  1  0
  3  4  1  0
  4  5  2  0
  5  6  1  0
  6  7  2  0
  7  8  1  0
  7  9  1  0
  9 10  2  0
  2 11  1  0
 11 12  3  0
 10  4  1  0
  1 13  1  0
  1 14  1  0
  2 15  1  1
  3 16  1  0
  3 17  1  0
  5 18  1  0
  6 19  1  0
  9 20  1  0
 10 21  1  0
M  END
