
     RDKit          3D

 35 36  0  0  0  0  0  0  0  0999 V2000
   -2.4529    0.5338   -2.0353 N   0  0  0  0  0  0  0  0  0  0  0  0
   -1.1747    0.2322   -1.3551 C   0  0  1  0  0  0  0  0  0  0  0  0
   -0.2935    1.4894   -1.2509 C   0  0  0  0  0  0  0  0  0  0  0  0
   -0.1152    2.2283   -2.5799 C   0  0  0  0  0  0  0  0  0  0  0  0
   -1.2523    3.1855   -2.8766 C   0  0  0  0  0  0  0  0  0  0  0  0
   -1.3673    3.5388   -4.1907 N   0  0  0  0  0  0  0  0  0  0  0  0
   -1.9879    3.6763   -2.0279 O   0  0  0  0  0  0  0  0  0  0  0  0
   -1.4822   -0.3487    0.0428 C   0  0  0  0  0  0  0  0  0  0  0  0
   -2.6318   -0.4008    0.4861 O   0  0  0  0  0  0  0  0  0  0  0  0
   -0.3690   -0.8787    0.8844 C   0  0  0  0  0  0  0  0  0  0  0  0
    0.8292   -1.3509    0.3355 C   0  0  0  0  0  0  0  0  0  0  0  0
    1.8538   -1.8428    1.1641 C   0  0  0  0  0  0  0  0  0  0  0  0
    3.0640   -2.3141    0.6289 C   0  0  0  0  0  0  0  0  0  0  0  0
    4.0731   -2.7989    1.4627 C   0  0  0  0  0  0  0  0  0  0  0  0
    3.8862   -2.8203    2.8414 C   0  0  0  0  0  0  0  0  0  0  0  0
    2.6893   -2.3581    3.3901 C   0  0  0  0  0  0  0  0  0  0  0  0
    1.6648   -1.8673    2.5655 C   0  0  0  0  0  0  0  0  0  0  0  0
    0.4552   -1.4051    3.1036 C   0  0  0  0  0  0  0  0  0  0  0  0
   -0.5543   -0.9190    2.2703 C   0  0  0  0  0  0  0  0  0  0  0  0
   -2.8715    1.3489   -1.5693 H   0  0  0  0  0  0  0  0  0  0  0  0
   -3.1106   -0.2181   -1.8030 H   0  0  0  0  0  0  0  0  0  0  0  0
   -0.6813   -0.5390   -1.9550 H   0  0  0  0  0  0  0  0  0  0  0  0
    0.7030    1.1916   -0.9037 H   0  0  0  0  0  0  0  0  0  0  0  0
   -0.6875    2.1640   -0.4800 H   0  0  0  0  0  0  0  0  0  0  0  0
    0.7945    2.8391   -2.5275 H   0  0  0  0  0  0  0  0  0  0  0  0
    0.0118    1.5179   -3.4043 H   0  0  0  0  0  0  0  0  0  0  0  0
   -2.1874    4.0896   -4.4124 H   0  0  0  0  0  0  0  0  0  0  0  0
   -1.0411    2.9084   -4.9103 H   0  0  0  0  0  0  0  0  0  0  0  0
    0.9827   -1.3577   -0.7395 H   0  0  0  0  0  0  0  0  0  0  0  0
    3.2330   -2.3084   -0.4458 H   0  0  0  0  0  0  0  0  0  0  0  0
    5.0048   -3.1606    1.0350 H   0  0  0  0  0  0  0  0  0  0  0  0
    4.6711   -3.1983    3.4916 H   0  0  0  0  0  0  0  0  0  0  0  0
    2.5617   -2.3852    4.4703 H   0  0  0  0  0  0  0  0  0  0  0  0
    0.2864   -1.4216    4.1784 H   0  0  0  0  0  0  0  0  0  0  0  0
   -1.4868   -0.5690    2.7107 H   0  0  0  0  0  0  0  0  0  0  0  0
  1  2  1  0
  2  3  1  0
  3  4  1  0
  4  5  1  0
  5  6  1  0
  5  7  2  0
  2  8  1  0
  8  9  2  0
  8 10  1  0
 10 11  2  0
 11 12  1  0
 12 13  2  0
 13 14  1  0
 14 15  2  0
 15 16  1  0
 16 17  2  0
 17 18  1  0
 18 19  2  0
 19 10  1  0
 17 12  1  0
  1 20  1  0
  1 21  1  0
  2 22  1  6
  3 23  1  0
  3 24  1  0
  4 25  1  0
  4 26  1  0
  6 27  1  0
  6 28  1  0
 11 29  1  0
 13 30  1  0
 14 31  1  0
 15 32  1  0
 16 33  1  0
 18 34  1  0
 19 35  1  0
M  END
