
     RDKit          3D

 26 26  0  0  0  0  0  0  0  0999 V2000
    0.1514    1.6733    2.2154 C   0  0  0  0  0  0  0  0  0  0  0  0
    0.3086    2.0331    0.7444 C   0  0  2  0  0  0  0  0  0  0  0  0
    0.3099    3.5015    0.6030 N   0  0  0  0  0  0  0  0  0  0  0  0
   -0.8563    1.4503   -0.0694 C   0  0  0  0  0  0  0  0  0  0  0  0
   -1.9433    2.0352   -0.1329 O   0  0  0  0  0  0  0  0  0  0  0  0
   -0.6207    0.1982   -0.9035 C   0  0  0  0  0  0  0  0  0  0  0  0
    0.4289   -0.7986   -0.4121 C   0  0  0  0  0  0  0  0  0  0  0  0
    0.0414   -2.1402   -1.0399 C   0  0  0  0  0  0  0  0  0  0  0  0
   -1.3208   -1.9268   -1.7042 C   0  0  0  0  0  0  0  0  0  0  0  0
   -1.8861   -0.6571   -1.0638 C   0  0  1  0  0  0  0  0  0  0  0  0
   -2.5270   -0.9760    0.2281 C   0  0  0  0  0  0  0  0  0  0  0  0
   -2.9884   -1.2509    1.2564 N   0  0  0  0  0  0  0  0  0  0  0  0
    0.1482    0.5890    2.3614 H   0  0  0  0  0  0  0  0  0  0  0  0
    0.9715    2.0884    2.8114 H   0  0  0  0  0  0  0  0  0  0  0  0
   -0.7923    2.0533    2.6242 H   0  0  0  0  0  0  0  0  0  0  0  0
    1.2588    1.6595    0.3538 H   0  0  0  0  0  0  0  0  0  0  0  0
    0.3376    3.7468   -0.3869 H   0  0  0  0  0  0  0  0  0  0  0  0
   -0.6039    3.8433    0.9189 H   0  0  0  0  0  0  0  0  0  0  0  0
   -0.3058    0.5561   -1.8944 H   0  0  0  0  0  0  0  0  0  0  0  0
    0.4284   -0.8904    0.6785 H   0  0  0  0  0  0  0  0  0  0  0  0
    1.4396   -0.5006   -0.7108 H   0  0  0  0  0  0  0  0  0  0  0  0
   -0.0190   -2.9137   -0.2660 H   0  0  0  0  0  0  0  0  0  0  0  0
    0.7841   -2.4698   -1.7741 H   0  0  0  0  0  0  0  0  0  0  0  0
   -1.1720   -1.7605   -2.7787 H   0  0  0  0  0  0  0  0  0  0  0  0
   -1.9693   -2.8022   -1.5925 H   0  0  0  0  0  0  0  0  0  0  0  0
   -2.6156   -0.1767   -1.7251 H   0  0  0  0  0  0  0  0  0  0  0  0
  1  2  1  0
  2  3  1  0
  2  4  1  0
  4  5  2  0
  4  6  1  0
  6  7  1  0
  7  8  1  0
  8  9  1  0
  9 10  1  0
 10 11  1  0
 11 12  3  0
 10  6  1  0
  1 13  1  0
  1 14  1  0
  1 15  1  0
  2 16  1  6
  3 17  1  0
  3 18  1  0
  6 19  1  0
  7 20  1  0
  7 21  1  0
  8 22  1  0
  8 23  1  0
  9 24  1  0
  9 25  1  0
 10 26  1  6
M  END
