
     RDKit          3D

 49 49  0  0  0  0  0  0  0  0999 V2000
   -4.7472   -0.1919    0.4361 N   0  0  0  0  0  0  0  0  0  0  0  0
   -3.5672   -0.5877   -0.3505 C   0  0  2  0  0  0  0  0  0  0  0  0
   -2.2836   -0.0144    0.2874 C   0  0  0  0  0  0  0  0  0  0  0  0
   -1.9785   -0.5939    1.6738 C   0  0  0  0  0  0  0  0  0  0  0  0
   -0.7570    0.0286    2.3614 C   0  0  0  0  0  0  0  0  0  0  0  0
    0.5741   -0.1995    1.6368 C   0  0  0  0  0  0  0  0  0  0  0  0
    1.0055    1.0052    0.7956 C   0  0  0  0  0  0  0  0  0  0  0  0
    2.4116    0.8717    0.1944 C   0  0  0  0  0  0  0  0  0  0  0  0
    2.5406   -0.2095   -0.8847 C   0  0  0  0  0  0  0  0  0  0  0  0
    3.0693   -1.5668   -0.3991 C   0  0  0  0  0  0  0  0  0  0  0  0
    4.6022   -1.6745   -0.3615 C   0  0  0  0  0  0  0  0  0  0  0  0
    5.2578   -0.9789    0.8055 C   0  0  0  0  0  0  0  0  0  0  0  0
    6.0657    0.1493    0.6051 C   0  0  0  0  0  0  0  0  0  0  0  0
    6.6705    0.7914    1.6906 C   0  0  0  0  0  0  0  0  0  0  0  0
    6.4751    0.3117    2.9849 C   0  0  0  0  0  0  0  0  0  0  0  0
    5.6779   -0.8125    3.1952 C   0  0  0  0  0  0  0  0  0  0  0  0
    5.0742   -1.4564    2.1113 C   0  0  0  0  0  0  0  0  0  0  0  0
   -3.6913   -0.1052   -1.8163 C   0  0  0  0  0  0  0  0  0  0  0  0
   -4.7666   -0.8114   -2.5456 C   0  0  0  0  0  0  0  0  0  0  0  0
   -5.6453   -1.3847   -3.1346 C   0  0  0  0  0  0  0  0  0  0  0  0
   -5.5893   -0.5075   -0.0480 H   0  0  0  0  0  0  0  0  0  0  0  0
   -4.7443   -0.6829    1.3298 H   0  0  0  0  0  0  0  0  0  0  0  0
   -3.5055   -1.6853   -0.3447 H   0  0  0  0  0  0  0  0  0  0  0  0
   -2.3551    1.0802    0.3508 H   0  0  0  0  0  0  0  0  0  0  0  0
   -1.4430   -0.2410   -0.3790 H   0  0  0  0  0  0  0  0  0  0  0  0
   -2.8347   -0.4424    2.3401 H   0  0  0  0  0  0  0  0  0  0  0  0
   -1.8358   -1.6789    1.5901 H   0  0  0  0  0  0  0  0  0  0  0  0
   -0.6816   -0.4358    3.3537 H   0  0  0  0  0  0  0  0  0  0  0  0
   -0.9302    1.0977    2.5370 H   0  0  0  0  0  0  0  0  0  0  0  0
    1.3480   -0.3769    2.3953 H   0  0  0  0  0  0  0  0  0  0  0  0
    0.5156   -1.1062    1.0236 H   0  0  0  0  0  0  0  0  0  0  0  0
    1.0005    1.9009    1.4309 H   0  0  0  0  0  0  0  0  0  0  0  0
    0.2843    1.1951   -0.0066 H   0  0  0  0  0  0  0  0  0  0  0  0
    3.1389    0.7333    0.9983 H   0  0  0  0  0  0  0  0  0  0  0  0
    2.6516    1.8365   -0.2726 H   0  0  0  0  0  0  0  0  0  0  0  0
    3.2021    0.1607   -1.6780 H   0  0  0  0  0  0  0  0  0  0  0  0
    1.5622   -0.3623   -1.3576 H   0  0  0  0  0  0  0  0  0  0  0  0
    2.7163   -2.3221   -1.1163 H   0  0  0  0  0  0  0  0  0  0  0  0
    2.6362   -1.8386    0.5707 H   0  0  0  0  0  0  0  0  0  0  0  0
    4.8760   -2.7371   -0.3046 H   0  0  0  0  0  0  0  0  0  0  0  0
    5.0238   -1.3133   -1.3099 H   0  0  0  0  0  0  0  0  0  0  0  0
    6.2269    0.5382   -0.3978 H   0  0  0  0  0  0  0  0  0  0  0  0
    7.2964    1.6666    1.5241 H   0  0  0  0  0  0  0  0  0  0  0  0
    6.9442    0.8111    3.8284 H   0  0  0  0  0  0  0  0  0  0  0  0
    5.5262   -1.1889    4.2030 H   0  0  0  0  0  0  0  0  0  0  0  0
    4.4569   -2.3357    2.2913 H   0  0  0  0  0  0  0  0  0  0  0  0
   -3.8692    0.9788   -1.8470 H   0  0  0  0  0  0  0  0  0  0  0  0
   -2.7440   -0.2838   -2.3427 H   0  0  0  0  0  0  0  0  0  0  0  0
   -6.4303   -1.8908   -3.6552 H   0  0  0  0  0  0  0  0  0  0  0  0
  1  2  1  0
  2  3  1  0
  3  4  1  0
  4  5  1  0
  5  6  1  0
  6  7  1  0
  7  8  1  0
  8  9  1  0
  9 10  1  0
 10 11  1  0
 11 12  1  0
 12 13  2  0
 13 14  1  0
 14 15  2  0
 15 16  1  0
 16 17  2  0
  2 18  1  0
 18 19  1  0
 19 20  3  0
 17 12  1  0
  1 21  1  0
  1 22  1  0
  2 23  1  6
  3 24  1  0
  3 25  1  0
  4 26  1  0
  4 27  1  0
  5 28  1  0
  5 29  1  0
  6 30  1  0
  6 31  1  0
  7 32  1  0
  7 33  1  0
  8 34  1  0
  8 35  1  0
  9 36  1  0
  9 37  1  0
 10 38  1  0
 10 39  1  0
 11 40  1  0
 11 41  1  0
 13 42  1  0
 14 43  1  0
 15 44  1  0
 16 45  1  0
 17 46  1  0
 18 47  1  0
 18 48  1  0
 20 49  1  0
M  END
