
     RDKit          3D

 43 42  0  0  0  0  0  0  0  0999 V2000
    3.2681   -0.6456   -4.3843 C   0  0  0  0  0  0  0  0  0  0  0  0
    3.4796   -0.0442   -3.0015 C   0  0  0  0  0  0  0  0  0  0  0  0
    2.6477    1.2232   -2.7638 C   0  0  0  0  0  0  0  0  0  0  0  0
    1.1619    1.0798   -2.5558 C   0  0  0  0  0  0  0  0  0  0  0  0
    0.4588   -0.0530   -2.4000 C   0  0  0  0  0  0  0  0  0  0  0  0
   -0.9741   -0.0953   -2.2154 C   0  0  0  0  0  0  0  0  0  0  0  0
   -1.6348    0.6199   -1.2906 C   0  0  0  0  0  0  0  0  0  0  0  0
   -3.1264    0.5646   -1.0886 C   0  0  0  0  0  0  0  0  0  0  0  0
   -3.6380   -0.2514    0.1248 C   0  0  1  0  0  0  0  0  0  0  0  0
   -3.1352   -1.6365    0.1165 N   0  0  0  0  0  0  0  0  0  0  0  0
   -3.4159    0.4203    1.5037 C   0  0  0  0  0  0  0  0  0  0  0  0
   -1.9910    0.5355    1.9811 C   0  0  0  0  0  0  0  0  0  0  0  0
   -1.4116   -0.3536    2.8047 C   0  0  0  0  0  0  0  0  0  0  0  0
   -0.0385   -0.2352    3.2464 C   0  0  0  0  0  0  0  0  0  0  0  0
    0.6240   -1.0784    4.0634 C   0  0  0  0  0  0  0  0  0  0  0  0
    0.0505   -2.3080    4.7149 C   0  0  0  0  0  0  0  0  0  0  0  0
    2.0045   -0.7904    4.3298 C   0  0  0  0  0  0  0  0  0  0  0  0
    3.1701   -0.5759    4.5213 C   0  0  0  0  0  0  0  0  0  0  0  0
    3.5187    0.0781   -5.1653 H   0  0  0  0  0  0  0  0  0  0  0  0
    3.9139   -1.5182   -4.5163 H   0  0  0  0  0  0  0  0  0  0  0  0
    2.2353   -0.9678   -4.5378 H   0  0  0  0  0  0  0  0  0  0  0  0
    4.5407    0.2184   -2.9047 H   0  0  0  0  0  0  0  0  0  0  0  0
    3.2767   -0.7950   -2.2285 H   0  0  0  0  0  0  0  0  0  0  0  0
    3.0474    1.7324   -1.8759 H   0  0  0  0  0  0  0  0  0  0  0  0
    2.8047    1.9100   -3.6068 H   0  0  0  0  0  0  0  0  0  0  0  0
    0.6259    2.0296   -2.5306 H   0  0  0  0  0  0  0  0  0  0  0  0
    0.9412   -1.0268   -2.4523 H   0  0  0  0  0  0  0  0  0  0  0  0
   -1.5083   -0.8041   -2.8442 H   0  0  0  0  0  0  0  0  0  0  0  0
   -1.0812    1.3020   -0.6506 H   0  0  0  0  0  0  0  0  0  0  0  0
   -3.4989    1.5952   -1.0156 H   0  0  0  0  0  0  0  0  0  0  0  0
   -3.5903    0.1508   -1.9951 H   0  0  0  0  0  0  0  0  0  0  0  0
   -4.7265   -0.3217    0.0005 H   0  0  0  0  0  0  0  0  0  0  0  0
   -3.2394   -2.0259   -0.8193 H   0  0  0  0  0  0  0  0  0  0  0  0
   -2.1258   -1.6110    0.2829 H   0  0  0  0  0  0  0  0  0  0  0  0
   -3.9988   -0.1310    2.2541 H   0  0  0  0  0  0  0  0  0  0  0  0
   -3.8485    1.4278    1.4850 H   0  0  0  0  0  0  0  0  0  0  0  0
   -1.4340    1.4050    1.6423 H   0  0  0  0  0  0  0  0  0  0  0  0
   -1.9926   -1.2128    3.1329 H   0  0  0  0  0  0  0  0  0  0  0  0
    0.5048    0.6222    2.8447 H   0  0  0  0  0  0  0  0  0  0  0  0
   -1.0381   -2.3734    4.6475 H   0  0  0  0  0  0  0  0  0  0  0  0
    0.4734   -3.2092    4.2553 H   0  0  0  0  0  0  0  0  0  0  0  0
    0.2978   -2.3201    5.7829 H   0  0  0  0  0  0  0  0  0  0  0  0
    4.2071   -0.3906    4.6789 H   0  0  0  0  0  0  0  0  0  0  0  0
  1  2  1  0
  2  3  1  0
  3  4  1  0
  4  5  2  0
  5  6  1  0
  6  7  2  0
  7  8  1  0
  8  9  1  0
  9 10  1  0
  9 11  1  0
 11 12  1  0
 12 13  2  0
 13 14  1  0
 14 15  2  0
 15 16  1  0
 15 17  1  0
 17 18  3  0
  1 19  1  0
  1 20  1  0
  1 21  1  0
  2 22  1  0
  2 23  1  0
  3 24  1  0
  3 25  1  0
  4 26  1  0
  5 27  1  0
  6 28  1  0
  7 29  1  0
  8 30  1  0
  8 31  1  0
  9 32  1  6
 10 33  1  0
 10 34  1  0
 11 35  1  0
 11 36  1  0
 12 37  1  0
 13 38  1  0
 14 39  1  0
 16 40  1  0
 16 41  1  0
 16 42  1  0
 18 43  1  0
M  END
