
     RDKit          3D

 26 25  0  0  0  0  0  0  0  0999 V2000
    1.9509    3.0040    0.7334 C   0  0  0  0  0  0  0  0  0  0  0  0
    1.8531    1.4985    0.9266 C   0  0  0  0  0  0  0  0  0  0  0  0
    0.4508    0.9371    0.6761 C   0  0  0  0  0  0  0  0  0  0  0  0
    0.0092    1.0435   -0.7858 C   0  0  0  0  0  0  0  0  0  0  0  0
   -1.4076    0.5053   -1.0382 C   0  0  0  0  0  0  0  0  0  0  0  0
   -1.6337   -0.9877   -0.7253 C   0  0  1  0  0  0  0  0  0  0  0  0
   -3.0499   -1.2865   -0.9386 N   0  0  0  0  0  0  0  0  0  0  0  0
   -0.7224   -1.8904   -1.5227 C   0  0  0  0  0  0  0  0  0  0  0  0
   -1.0483   -2.7676   -2.4841 C   0  0  0  0  0  0  0  0  0  0  0  0
    1.2114    3.5281    1.3469 H   0  0  0  0  0  0  0  0  0  0  0  0
    2.9451    3.3558    1.0275 H   0  0  0  0  0  0  0  0  0  0  0  0
    1.7973    3.2863   -0.3120 H   0  0  0  0  0  0  0  0  0  0  0  0
    2.1404    1.2630    1.9584 H   0  0  0  0  0  0  0  0  0  0  0  0
    2.5781    0.9982    0.2742 H   0  0  0  0  0  0  0  0  0  0  0  0
   -0.2721    1.4513    1.3208 H   0  0  0  0  0  0  0  0  0  0  0  0
    0.4577   -0.1150    0.9817 H   0  0  0  0  0  0  0  0  0  0  0  0
    0.0164    2.0956   -1.0932 H   0  0  0  0  0  0  0  0  0  0  0  0
    0.7306    0.5307   -1.4320 H   0  0  0  0  0  0  0  0  0  0  0  0
   -1.6551    0.6994   -2.0913 H   0  0  0  0  0  0  0  0  0  0  0  0
   -2.1099    1.1069   -0.4445 H   0  0  0  0  0  0  0  0  0  0  0  0
   -1.4342   -1.1682    0.3366 H   0  0  0  0  0  0  0  0  0  0  0  0
   -3.2852   -1.1165   -1.9140 H   0  0  0  0  0  0  0  0  0  0  0  0
   -3.2074   -2.2769   -0.7628 H   0  0  0  0  0  0  0  0  0  0  0  0
    0.3322   -1.8194   -1.2575 H   0  0  0  0  0  0  0  0  0  0  0  0
   -2.0673   -2.9204   -2.8209 H   0  0  0  0  0  0  0  0  0  0  0  0
   -0.2780   -3.3613   -2.9683 H   0  0  0  0  0  0  0  0  0  0  0  0
  1  2  1  0
  2  3  1  0
  3  4  1  0
  4  5  1  0
  5  6  1  0
  6  7  1  0
  6  8  1  0
  8  9  2  3
  1 10  1  0
  1 11  1  0
  1 12  1  0
  2 13  1  0
  2 14  1  0
  3 15  1  0
  3 16  1  0
  4 17  1  0
  4 18  1  0
  5 19  1  0
  5 20  1  0
  6 21  1  1
  7 22  1  0
  7 23  1  0
  8 24  1  0
  9 25  1  0
  9 26  1  0
M  END
