
     RDKit          3D

 13 12  0  0  0  0  0  0  0  0999 V2000
    0.6493   -2.0651   -1.9962 C   0  0  0  0  0  1  0  0  0  0  0  0
   -0.0524   -1.2473   -0.8924 C   0  0  0  0  0  0  0  0  0  0  0  0
   -0.9423   -1.8935   -0.3621 O   0  0  0  0  0  0  0  0  0  0  0  0
    0.2781    0.2315   -0.6614 C   0  0  1  0  0  0  0  0  0  0  0  0
   -0.8653    1.1086   -1.0666 N   0  0  0  0  0  0  0  0  0  0  0  0
    0.5951    0.4573    0.8217 C   0  0  0  0  0  0  0  0  0  0  0  0
    2.1932   -0.2686    1.3121 S   0  0  0  0  0  0  0  0  0  0  0  0
    1.1361    0.5175   -1.2809 H   0  0  0  0  0  0  0  0  0  0  0  0
   -1.7132    0.8119   -0.5746 H   0  0  0  0  0  0  0  0  0  0  0  0
   -1.0619    0.9708   -2.0610 H   0  0  0  0  0  0  0  0  0  0  0  0
    0.6510    1.5290    1.0429 H   0  0  0  0  0  0  0  0  0  0  0  0
   -0.1825    0.0273    1.4628 H   0  0  0  0  0  0  0  0  0  0  0  0
    2.9767    0.6000    0.6528 H   0  0  0  0  0  0  0  0  0  0  0  0
  1  2  1  0
  2  3  2  0
  2  4  1  0
  4  5  1  0
  4  6  1  0
  6  7  1  0
  4  8  1  6
  5  9  1  0
  5 10  1  0
  6 11  1  0
  6 12  1  0
  7 13  1  0
M  RAD  1   1   2
M  END
