
     RDKit          3D

 23 22  0  0  0  0  0  0  0  0999 V2000
    1.3479   -0.9883    0.2662 C   0  0  0  0  0  0  0  0  0  0  0  0
    0.7343    0.3567   -0.1565 C   0  0  0  0  0  0  0  0  0  0  0  0
    0.8398    1.3358    1.0223 C   0  0  0  0  0  0  0  0  0  0  0  0
   -0.7164    0.2174   -0.7189 C   0  0  2  0  0  0  0  0  0  0  0  0
   -1.2967    1.5755   -1.1503 C   0  0  0  0  0  0  0  0  0  0  0  0
   -1.6355   -0.3406    0.3051 N   0  0  0  0  0  0  0  0  0  0  0  0
   -0.7363   -0.7319   -1.9603 C   0  0  0  0  0  0  0  0  0  0  0  0
   -0.0074   -0.3497   -3.0477 N   0  0  0  0  0  0  0  0  0  0  0  0
   -1.3677   -1.7873   -1.9894 O   0  0  0  0  0  0  0  0  0  0  0  0
    0.8190   -1.4274    1.1182 H   0  0  0  0  0  0  0  0  0  0  0  0
    1.3378   -1.7117   -0.5545 H   0  0  0  0  0  0  0  0  0  0  0  0
    2.3939   -0.8532    0.5640 H   0  0  0  0  0  0  0  0  0  0  0  0
    1.3753    0.7550   -0.9546 H   0  0  0  0  0  0  0  0  0  0  0  0
    0.2143    1.0248    1.8652 H   0  0  0  0  0  0  0  0  0  0  0  0
    1.8735    1.3962    1.3808 H   0  0  0  0  0  0  0  0  0  0  0  0
    0.5453    2.3479    0.7294 H   0  0  0  0  0  0  0  0  0  0  0  0
   -0.6010    2.1189   -1.7996 H   0  0  0  0  0  0  0  0  0  0  0  0
   -1.5172    2.2197   -0.2917 H   0  0  0  0  0  0  0  0  0  0  0  0
   -2.2309    1.4491   -1.7112 H   0  0  0  0  0  0  0  0  0  0  0  0
   -2.5603   -0.4347   -0.1230 H   0  0  0  0  0  0  0  0  0  0  0  0
   -1.3631   -1.3142    0.4667 H   0  0  0  0  0  0  0  0  0  0  0  0
    0.5065    0.5177   -3.1023 H   0  0  0  0  0  0  0  0  0  0  0  0
   -0.0261   -0.9555   -3.8579 H   0  0  0  0  0  0  0  0  0  0  0  0
  1  2  1  0
  2  3  1  0
  2  4  1  0
  4  5  1  0
  4  6  1  1
  4  7  1  0
  7  8  1  0
  7  9  2  0
  1 10  1  0
  1 11  1  0
  1 12  1  0
  2 13  1  0
  3 14  1  0
  3 15  1  0
  3 16  1  0
  5 17  1  0
  5 18  1  0
  5 19  1  0
  6 20  1  0
  6 21  1  0
  8 22  1  0
  8 23  1  0
M  END
