
     RDKit          3D

 14 13  0  0  0  0  0  0  0  0999 V2000
    0.7060    1.5291   -0.8111 N   0  0  0  0  0  0  0  0  0  0  0  0
    0.0506    0.8052    0.3012 C   0  0  1  0  0  0  0  0  0  0  0  0
   -1.3125    1.3945    0.6933 C   0  0  0  0  0  0  0  0  0  0  0  0
   -1.1853    3.1346    1.2224 S   0  0  0  0  0  0  0  0  0  0  0  0
   -0.1427   -0.6449   -0.1199 C   0  0  0  0  0  0  0  0  0  0  0  0
    0.3971   -1.1379   -1.1894 N   0  0  0  0  0  0  0  0  0  0  0  0
    0.0410    1.6131   -1.5843 H   0  0  0  0  0  0  0  0  0  0  0  0
    0.8578    2.4952   -0.5085 H   0  0  0  0  0  0  0  0  0  0  0  0
    0.7191    0.7953    1.1700 H   0  0  0  0  0  0  0  0  0  0  0  0
   -2.0130    1.3435   -0.1481 H   0  0  0  0  0  0  0  0  0  0  0  0
   -1.7536    0.8193    1.5148 H   0  0  0  0  0  0  0  0  0  0  0  0
   -0.4048    2.9193    2.2925 H   0  0  0  0  0  0  0  0  0  0  0  0
   -0.7435   -1.2963    0.5361 H   0  0  0  0  0  0  0  0  0  0  0  0
    0.9519   -0.3738   -1.6177 H   0  0  0  0  0  0  0  0  0  0  0  0
  1  2  1  0
  2  3  1  0
  3  4  1  0
  2  5  1  0
  5  6  2  3
  1  7  1  0
  1  8  1  0
  2  9  1  1
  3 10  1  0
  3 11  1  0
  4 12  1  0
  5 13  1  0
  6 14  1  0
M  END
