
     RDKit          3D

 24 24  0  0  0  0  0  0  0  0999 V2000
    2.9367    1.8065    0.8510 C   0  0  0  0  0  0  0  0  0  0  0  0
    1.9775    0.8982    1.6194 C   0  0  1  0  0  0  0  0  0  0  0  0
    1.1713    1.7077    2.5285 N   0  0  0  0  0  0  0  0  0  0  0  0
    1.1514    0.0846    0.6568 C   0  0  0  0  0  0  0  0  0  0  0  0
   -0.1754    0.1717    0.4564 C   0  0  0  0  0  0  0  0  0  0  0  0
   -0.9236   -0.6633   -0.4929 C   0  0  0  0  0  0  0  0  0  0  0  0
   -0.4133   -0.9999   -1.7558 C   0  0  0  0  0  0  0  0  0  0  0  0
   -1.1678   -1.7728   -2.6420 C   0  0  0  0  0  0  0  0  0  0  0  0
   -2.4362   -2.1999   -2.2701 C   0  0  0  0  0  0  0  0  0  0  0  0
   -3.1595   -2.9400   -3.1204 F   0  0  0  0  0  0  0  0  0  0  0  0
   -2.9676   -1.8645   -1.0313 C   0  0  0  0  0  0  0  0  0  0  0  0
   -2.2136   -1.0912   -0.1454 C   0  0  0  0  0  0  0  0  0  0  0  0
    3.5882    2.3603    1.5367 H   0  0  0  0  0  0  0  0  0  0  0  0
    2.3975    2.5364    0.2354 H   0  0  0  0  0  0  0  0  0  0  0  0
    3.5829    1.2217    0.1863 H   0  0  0  0  0  0  0  0  0  0  0  0
    2.5699    0.2013    2.2246 H   0  0  0  0  0  0  0  0  0  0  0  0
    1.7854    2.2486    3.1346 H   0  0  0  0  0  0  0  0  0  0  0  0
    0.6498    1.0836    3.1422 H   0  0  0  0  0  0  0  0  0  0  0  0
    1.7239   -0.6498    0.0926 H   0  0  0  0  0  0  0  0  0  0  0  0
   -0.7674    0.8901    1.0193 H   0  0  0  0  0  0  0  0  0  0  0  0
    0.5693   -0.6531   -2.0661 H   0  0  0  0  0  0  0  0  0  0  0  0
   -0.7762   -2.0366   -3.6190 H   0  0  0  0  0  0  0  0  0  0  0  0
   -3.9629   -2.2031   -0.7630 H   0  0  0  0  0  0  0  0  0  0  0  0
   -2.6375   -0.8309    0.8220 H   0  0  0  0  0  0  0  0  0  0  0  0
  1  2  1  0
  2  3  1  0
  2  4  1  0
  4  5  2  0
  5  6  1  0
  6  7  2  0
  7  8  1  0
  8  9  2  0
  9 10  1  0
  9 11  1  0
 11 12  2  0
 12  6  1  0
  1 13  1  0
  1 14  1  0
  1 15  1  0
  2 16  1  1
  3 17  1  0
  3 18  1  0
  4 19  1  0
  5 20  1  0
  7 21  1  0
  8 22  1  0
 11 23  1  0
 12 24  1  0
M  END
