
     RDKit          3D

 38 39  0  0  0  0  0  0  0  0999 V2000
   -3.6762   -0.3872    0.4602 N   0  0  0  0  0  0  0  0  0  0  0  0
   -2.4786    0.4130    0.0948 C   0  0  1  0  0  0  0  0  0  0  0  0
   -1.4453    0.4450    1.2476 C   0  0  0  0  0  0  0  0  0  0  0  0
   -0.8560   -0.8797    1.6828 C   0  0  0  0  0  0  0  0  0  0  0  0
    0.4314   -1.2583    1.2820 C   0  0  0  0  0  0  0  0  0  0  0  0
    0.9665   -2.4840    1.6797 C   0  0  0  0  0  0  0  0  0  0  0  0
    2.5438   -2.9336    1.1569 Cl  0  0  0  0  0  0  0  0  0  0  0  0
    0.2355   -3.3432    2.4954 C   0  0  0  0  0  0  0  0  0  0  0  0
   -1.0368   -2.9681    2.9229 C   0  0  0  0  0  0  0  0  0  0  0  0
   -1.5754   -1.7427    2.5233 C   0  0  0  0  0  0  0  0  0  0  0  0
   -1.9360   -0.0446   -1.3069 C   0  0  1  0  0  0  0  0  0  0  0  0
   -3.1041   -0.3753   -2.1760 N   0  0  0  0  0  0  0  0  0  0  0  0
   -1.0850    1.0385   -2.0201 C   0  0  0  0  0  0  0  0  0  0  0  0
    0.3954    1.0089   -1.7304 C   0  0  0  0  0  0  0  0  0  0  0  0
    1.0206    2.0858   -1.0859 C   0  0  0  0  0  0  0  0  0  0  0  0
    2.3950    2.0582   -0.8437 C   0  0  0  0  0  0  0  0  0  0  0  0
    3.1441    3.3802   -0.0365 Cl  0  0  0  0  0  0  0  0  0  0  0  0
    3.1636    0.9695   -1.2482 C   0  0  0  0  0  0  0  0  0  0  0  0
    2.5549   -0.0982   -1.9061 C   0  0  0  0  0  0  0  0  0  0  0  0
    1.1798   -0.0770   -2.1497 C   0  0  0  0  0  0  0  0  0  0  0  0
   -4.2140   -0.4753   -0.4122 H   0  0  0  0  0  0  0  0  0  0  0  0
   -3.3677   -1.3506    0.6060 H   0  0  0  0  0  0  0  0  0  0  0  0
   -2.8496    1.4405   -0.0195 H   0  0  0  0  0  0  0  0  0  0  0  0
   -0.6344    1.1357    0.9950 H   0  0  0  0  0  0  0  0  0  0  0  0
   -1.9206    0.8986    2.1294 H   0  0  0  0  0  0  0  0  0  0  0  0
    1.0302   -0.5928    0.6700 H   0  0  0  0  0  0  0  0  0  0  0  0
    0.6522   -4.2965    2.8076 H   0  0  0  0  0  0  0  0  0  0  0  0
   -1.6100   -3.6266    3.5708 H   0  0  0  0  0  0  0  0  0  0  0  0
   -2.5663   -1.4595    2.8770 H   0  0  0  0  0  0  0  0  0  0  0  0
   -1.3720   -0.9767   -1.1918 H   0  0  0  0  0  0  0  0  0  0  0  0
   -2.7651   -0.7329   -3.0696 H   0  0  0  0  0  0  0  0  0  0  0  0
   -3.6125    0.4837   -2.3924 H   0  0  0  0  0  0  0  0  0  0  0  0
   -1.1729    0.9232   -3.1104 H   0  0  0  0  0  0  0  0  0  0  0  0
   -1.4950    2.0349   -1.8099 H   0  0  0  0  0  0  0  0  0  0  0  0
    0.4394    2.9487   -0.7687 H   0  0  0  0  0  0  0  0  0  0  0  0
    4.2331    0.9471   -1.0572 H   0  0  0  0  0  0  0  0  0  0  0  0
    3.1509   -0.9498   -2.2262 H   0  0  0  0  0  0  0  0  0  0  0  0
    0.7244   -0.9184   -2.6695 H   0  0  0  0  0  0  0  0  0  0  0  0
  1  2  1  0
  2  3  1  0
  3  4  1  0
  4  5  2  0
  5  6  1  0
  6  7  1  0
  6  8  2  0
  8  9  1  0
  9 10  2  0
  2 11  1  0
 11 12  1  0
 11 13  1  0
 13 14  1  0
 14 15  2  0
 15 16  1  0
 16 17  1  0
 16 18  2  0
 18 19  1  0
 19 20  2  0
 10  4  1  0
 20 14  1  0
  1 21  1  0
  1 22  1  0
  2 23  1  6
  3 24  1  0
  3 25  1  0
  5 26  1  0
  8 27  1  0
  9 28  1  0
 10 29  1  0
 11 30  1  1
 12 31  1  0
 12 32  1  0
 13 33  1  0
 13 34  1  0
 15 35  1  0
 18 36  1  0
 19 37  1  0
 20 38  1  0
M  END
