
     RDKit          3D

 13 12  0  0  0  0  0  0  0  0999 V2000
    0.9954   -1.1228   -1.4950 N   0  0  0  0  0  0  0  0  0  0  0  0
   -0.3168   -0.6653   -1.1103 C   0  0  1  0  0  0  0  0  0  0  0  0
   -0.4653   -1.1253    0.3455 C   0  0  0  0  0  0  0  0  0  0  0  0
   -0.3185   -2.9345    0.3823 S   0  0  0  0  0  0  0  0  0  0  0  0
   -0.5999    0.6878   -1.1907 C   0  0  0  0  0  0  0  0  0  0  0  0
    1.4837    1.4504   -1.9965 Zn  0  0  0  0  0  1  0  0  0  0  0  0
   -1.0715    1.6988   -1.1625 O   0  0  0  0  0  0  0  0  0  0  0  0
    1.7138   -0.9632   -0.7571 H   0  0  0  0  0  0  0  0  0  0  0  0
    0.9920   -2.1001   -1.8585 H   0  0  0  0  0  0  0  0  0  0  0  0
   -1.1018   -1.3325   -1.6330 H   0  0  0  0  0  0  0  0  0  0  0  0
    0.3615   -0.7222    0.9682 H   0  0  0  0  0  0  0  0  0  0  0  0
   -1.4659   -0.8662    0.7378 H   0  0  0  0  0  0  0  0  0  0  0  0
   -1.4101   -3.5686   -0.2235 H   0  0  0  0  0  0  0  0  0  0  0  0
  1  2  1  0
  2  3  1  0
  3  4  1  0
  2  5  1  0
  5  6  1  0
  5  7  2  0
  1  8  1  0
  1  9  1  0
  2 10  1  6
  3 11  1  0
  3 12  1  0
  4 13  1  0
M  END
