
     RDKit          3D

 21 20  0  0  0  0  0  0  0  0999 V2000
    0.3496   -0.2619    0.0665 C   0  0  1  0  0  0  0  0  0  0  0  0
    1.6628    0.3710    0.3006 N   0  0  0  0  0  0  0  0  0  0  0  0
    0.0187   -1.3242    1.1328 C   0  0  0  0  0  0  0  0  0  0  0  0
   -0.2278   -0.8569    2.5740 C   0  0  0  0  0  0  0  0  0  0  0  0
    1.0153   -0.3450    3.2995 C   0  0  0  0  0  0  0  0  0  0  0  0
    0.7061   -0.1031    4.7056 N   0  0  0  0  0  0  0  0  0  0  0  0
   -0.7709    0.7852   -0.1115 C   0  0  0  0  0  0  0  0  0  0  0  0
   -0.6028    2.3295    0.7250 S   0  0  0  0  0  0  0  0  0  0  0  0
   -2.1082    0.4679   -1.0794 S   0  0  0  0  0  0  0  0  0  0  0  0
    0.4459   -0.7965   -0.8890 H   0  0  0  0  0  0  0  0  0  0  0  0
    1.9076    0.9400   -0.5132 H   0  0  0  0  0  0  0  0  0  0  0  0
    2.3793   -0.3553    0.3455 H   0  0  0  0  0  0  0  0  0  0  0  0
    0.8150   -2.0807    1.1409 H   0  0  0  0  0  0  0  0  0  0  0  0
   -0.8858   -1.8570    0.8099 H   0  0  0  0  0  0  0  0  0  0  0  0
   -1.0213   -0.1016    2.5986 H   0  0  0  0  0  0  0  0  0  0  0  0
   -0.6215   -1.7216    3.1262 H   0  0  0  0  0  0  0  0  0  0  0  0
    1.8283   -1.0754    3.2285 H   0  0  0  0  0  0  0  0  0  0  0  0
    1.3643    0.5949    2.8675 H   0  0  0  0  0  0  0  0  0  0  0  0
    0.4292   -0.9748    5.1549 H   0  0  0  0  0  0  0  0  0  0  0  0
    1.5469    0.2128    5.1874 H   0  0  0  0  0  0  0  0  0  0  0  0
    0.6182    2.0707    1.2220 H   0  0  0  0  0  0  0  0  0  0  0  0
  1  2  1  0
  1  3  1  0
  3  4  1  0
  4  5  1  0
  5  6  1  0
  1  7  1  0
  7  8  1  0
  7  9  2  0
  1 10  1  6
  2 11  1  0
  2 12  1  0
  3 13  1  0
  3 14  1  0
  4 15  1  0
  4 16  1  0
  5 17  1  0
  5 18  1  0
  6 19  1  0
  6 20  1  0
  8 21  1  0
M  END
