
     RDKit          3D

 22 21  0  0  0  0  0  0  0  0999 V2000
    1.4357    2.5660    0.7379 C   0  0  0  0  0  0  0  0  0  0  0  0
    0.1007    1.7002    1.5950 S   0  0  0  0  0  0  0  0  0  0  0  0
   -1.0635    1.4595    0.1932 C   0  0  0  0  0  0  0  0  0  0  0  0
   -1.0492    0.0446   -0.4336 C   0  0  2  0  0  0  0  0  0  0  0  0
   -1.1562   -0.9982    0.6106 N   0  0  0  0  0  0  0  0  0  0  0  0
    0.1666   -0.2915   -1.3179 C   0  0  0  0  0  0  0  0  0  0  0  0
    0.1838    0.4264   -2.6711 C   0  0  0  0  0  0  0  0  0  0  0  0
    0.5862    1.8244   -2.5780 N   0  0  0  0  0  0  0  0  0  0  0  0
    1.9470    1.8985    0.0426 H   0  0  0  0  0  0  0  0  0  0  0  0
    2.1664    2.9077    1.4762 H   0  0  0  0  0  0  0  0  0  0  0  0
    1.0526    3.4407    0.2064 H   0  0  0  0  0  0  0  0  0  0  0  0
   -0.9356    2.2477   -0.5517 H   0  0  0  0  0  0  0  0  0  0  0  0
   -2.0596    1.6221    0.6235 H   0  0  0  0  0  0  0  0  0  0  0  0
   -1.9476   -0.0461   -1.0572 H   0  0  0  0  0  0  0  0  0  0  0  0
   -1.9871   -0.8137    1.1741 H   0  0  0  0  0  0  0  0  0  0  0  0
   -0.3796   -0.8567    1.2641 H   0  0  0  0  0  0  0  0  0  0  0  0
    1.1081   -0.1280   -0.7809 H   0  0  0  0  0  0  0  0  0  0  0  0
    0.1395   -1.3675   -1.5431 H   0  0  0  0  0  0  0  0  0  0  0  0
    0.8860   -0.0878   -3.3375 H   0  0  0  0  0  0  0  0  0  0  0  0
   -0.8041    0.3644   -3.1405 H   0  0  0  0  0  0  0  0  0  0  0  0
    1.5711    1.8683   -2.3153 H   0  0  0  0  0  0  0  0  0  0  0  0
    0.5367    2.2447   -3.5072 H   0  0  0  0  0  0  0  0  0  0  0  0
  1  2  1  0
  2  3  1  0
  3  4  1  0
  4  5  1  0
  4  6  1  0
  6  7  1  0
  7  8  1  0
  1  9  1  0
  1 10  1  0
  1 11  1  0
  3 12  1  0
  3 13  1  0
  4 14  1  6
  5 15  1  0
  5 16  1  0
  6 17  1  0
  6 18  1  0
  7 19  1  0
  7 20  1  0
  8 21  1  0
  8 22  1  0
M  END
