
     RDKit          3D

 42 44  0  0  0  0  0  0  0  0999 V2000
    2.1694    2.2632    1.1464 C   0  0  1  0  0  0  0  0  0  0  0  0
    3.4843    2.8234    1.5815 N   0  0  0  0  0  0  0  0  0  0  0  0
    2.3364    1.2397    0.0056 C   0  0  0  0  0  0  0  0  0  0  0  0
    1.0963    1.4458   -1.3320 S   0  0  0  0  0  0  0  0  0  0  0  0
   -0.2489    0.3517   -0.7034 C   0  0  0  0  0  0  0  0  0  0  0  0
   -0.0075   -1.1554   -0.7774 C   0  0  0  0  0  0  0  0  0  0  0  0
   -0.8130   -2.0535   -0.0306 C   0  0  0  0  0  0  0  0  0  0  0  0
   -2.0294   -1.6864    0.8114 C   0  0  0  0  0  0  0  0  0  0  0  0
   -2.5496   -0.2461    0.9159 C   0  0  0  0  0  0  0  0  0  0  0  0
   -2.7536    0.4154   -0.4273 C   0  0  0  0  0  0  0  0  0  0  0  0
   -1.6337    0.7073   -1.2412 C   0  0  0  0  0  0  0  0  0  0  0  0
   -1.8543    1.2341   -2.5240 C   0  0  0  0  0  0  0  0  0  0  0  0
   -3.1475    1.5179   -2.9674 C   0  0  0  0  0  0  0  0  0  0  0  0
   -4.2409    1.2618   -2.1455 C   0  0  0  0  0  0  0  0  0  0  0  0
   -4.0473    0.7061   -0.8827 C   0  0  0  0  0  0  0  0  0  0  0  0
   -0.5286   -3.4369   -0.0897 C   0  0  0  0  0  0  0  0  0  0  0  0
    0.4948   -3.9408   -0.8873 C   0  0  0  0  0  0  0  0  0  0  0  0
    1.2495   -3.0718   -1.6581 C   0  0  0  0  0  0  0  0  0  0  0  0
    0.9962   -1.7001   -1.6090 C   0  0  0  0  0  0  0  0  0  0  0  0
    1.4948    1.6529    2.3947 C   0  0  0  0  0  0  0  0  0  0  0  0
    1.5016    2.4888    3.4815 N   0  0  0  0  0  0  0  0  0  0  0  0
    0.9728    0.5472    2.4558 O   0  0  0  0  0  0  0  0  0  0  0  0
    1.5515    3.1123    0.8305 H   0  0  0  0  0  0  0  0  0  0  0  0
    4.1063    2.0462    1.8126 H   0  0  0  0  0  0  0  0  0  0  0  0
    3.9130    3.2881    0.7791 H   0  0  0  0  0  0  0  0  0  0  0  0
    3.2961    1.4077   -0.4973 H   0  0  0  0  0  0  0  0  0  0  0  0
    2.3592    0.2051    0.3610 H   0  0  0  0  0  0  0  0  0  0  0  0
   -0.2438    0.6240    0.3509 H   0  0  0  0  0  0  0  0  0  0  0  0
   -2.8625   -2.2929    0.4265 H   0  0  0  0  0  0  0  0  0  0  0  0
   -1.8362   -2.0356    1.8348 H   0  0  0  0  0  0  0  0  0  0  0  0
   -1.8913    0.3674    1.5413 H   0  0  0  0  0  0  0  0  0  0  0  0
   -3.5019   -0.2679    1.4624 H   0  0  0  0  0  0  0  0  0  0  0  0
   -1.0239    1.4259   -3.1991 H   0  0  0  0  0  0  0  0  0  0  0  0
   -3.2991    1.9337   -3.9600 H   0  0  0  0  0  0  0  0  0  0  0  0
   -5.2463    1.4809   -2.4948 H   0  0  0  0  0  0  0  0  0  0  0  0
   -4.9130    0.4891   -0.2616 H   0  0  0  0  0  0  0  0  0  0  0  0
   -1.1314   -4.1383    0.4853 H   0  0  0  0  0  0  0  0  0  0  0  0
    0.6857   -5.0095   -0.9197 H   0  0  0  0  0  0  0  0  0  0  0  0
    2.0350   -3.4559   -2.3031 H   0  0  0  0  0  0  0  0  0  0  0  0
    1.6042   -1.0621   -2.2457 H   0  0  0  0  0  0  0  0  0  0  0  0
    1.2146    2.0879    4.3634 H   0  0  0  0  0  0  0  0  0  0  0  0
    2.2324    3.1945    3.4919 H   0  0  0  0  0  0  0  0  0  0  0  0
  1  2  1  0
  1  3  1  0
  3  4  1  0
  4  5  1  0
  5  6  1  0
  6  7  2  0
  7  8  1  0
  8  9  1  0
  9 10  1  0
 10 11  2  0
 11 12  1  0
 12 13  2  0
 13 14  1  0
 14 15  2  0
  7 16  1  0
 16 17  2  0
 17 18  1  0
 18 19  2  0
  1 20  1  0
 20 21  1  0
 20 22  2  0
 11  5  1  0
 19  6  1  0
 15 10  1  0
  1 23  1  6
  2 24  1  0
  2 25  1  0
  3 26  1  0
  3 27  1  0
  5 28  1  0
  8 29  1  0
  8 30  1  0
  9 31  1  0
  9 32  1  0
 12 33  1  0
 13 34  1  0
 14 35  1  0
 15 36  1  0
 16 37  1  0
 17 38  1  0
 18 39  1  0
 19 40  1  0
 21 41  1  0
 21 42  1  0
M  END
