
     RDKit          3D

 30 29  0  0  0  0  0  0  0  0999 V2000
   -0.0827   -0.4713   -0.3040 C   0  0  1  0  0  0  0  0  0  0  0  0
   -0.8917   -0.9197   -1.4596 N   0  0  0  0  0  0  0  0  0  0  0  0
    1.2811   -1.1847   -0.3277 C   0  0  0  0  0  0  0  0  0  0  0  0
    1.2307   -2.7275   -0.2931 C   0  0  0  0  0  0  0  0  0  0  0  0
    0.5493   -3.2566    0.9692 C   0  0  0  0  0  0  0  0  0  0  0  0
    2.6509   -3.2926   -0.3897 C   0  0  0  0  0  0  0  0  0  0  0  0
    0.0750    1.0710   -0.3481 C   0  0  0  0  0  0  0  0  0  0  0  0
   -0.3809    1.7796   -1.2405 O   0  0  0  0  0  0  0  0  0  0  0  0
    0.8488    1.7805    1.0768 S   0  0  0  0  0  0  0  0  0  0  0  0
    1.0618    3.4948    0.5014 C   0  0  0  0  0  0  0  0  0  0  0  0
   -0.2237    4.3142    0.6555 C   0  0  0  0  0  0  0  0  0  0  0  0
   -0.0271    5.6929    0.1990 N   0  0  0  0  0  0  0  0  0  0  0  0
   -0.6398   -0.7040    0.6107 H   0  0  0  0  0  0  0  0  0  0  0  0
   -1.6109   -0.2190   -1.6544 H   0  0  0  0  0  0  0  0  0  0  0  0
   -1.3761   -1.7846   -1.2275 H   0  0  0  0  0  0  0  0  0  0  0  0
    1.8884   -0.8449    0.5203 H   0  0  0  0  0  0  0  0  0  0  0  0
    1.8299   -0.8675   -1.2257 H   0  0  0  0  0  0  0  0  0  0  0  0
    0.6751   -3.0942   -1.1645 H   0  0  0  0  0  0  0  0  0  0  0  0
   -0.5076   -2.9757    0.9990 H   0  0  0  0  0  0  0  0  0  0  0  0
    0.5953   -4.3502    1.0051 H   0  0  0  0  0  0  0  0  0  0  0  0
    1.0314   -2.8690    1.8729 H   0  0  0  0  0  0  0  0  0  0  0  0
    3.1420   -2.9545   -1.3082 H   0  0  0  0  0  0  0  0  0  0  0  0
    3.2644   -2.9757    0.4604 H   0  0  0  0  0  0  0  0  0  0  0  0
    2.6328   -4.3877   -0.4054 H   0  0  0  0  0  0  0  0  0  0  0  0
    1.4176    3.4996   -0.5350 H   0  0  0  0  0  0  0  0  0  0  0  0
    1.8545    3.9430    1.1113 H   0  0  0  0  0  0  0  0  0  0  0  0
   -1.0489    3.8746    0.0863 H   0  0  0  0  0  0  0  0  0  0  0  0
   -0.5252    4.3423    1.7088 H   0  0  0  0  0  0  0  0  0  0  0  0
    0.1759    5.6866   -0.8014 H   0  0  0  0  0  0  0  0  0  0  0  0
   -0.9052    6.2024    0.2975 H   0  0  0  0  0  0  0  0  0  0  0  0
  1  2  1  0
  1  3  1  0
  3  4  1  0
  4  5  1  0
  4  6  1  0
  1  7  1  0
  7  8  2  0
  7  9  1  0
  9 10  1  0
 10 11  1  0
 11 12  1  0
  1 13  1  1
  2 14  1  0
  2 15  1  0
  3 16  1  0
  3 17  1  0
  4 18  1  0
  5 19  1  0
  5 20  1  0
  5 21  1  0
  6 22  1  0
  6 23  1  0
  6 24  1  0
 10 25  1  0
 10 26  1  0
 11 27  1  0
 11 28  1  0
 12 29  1  0
 12 30  1  0
M  END
