
     RDKit          3D

 37 38  0  0  0  0  0  0  0  0999 V2000
   -0.1792   -1.2885    0.5134 C   0  0  0  0  0  0  0  0  0  0  0  0
    0.5420   -2.4144    1.1660 N   0  0  0  0  0  0  0  0  0  0  0  0
    0.4309   -0.9246   -0.8511 C   0  0  0  0  0  0  0  0  0  0  0  0
    2.0505   -0.0890   -0.6830 S   0  0  0  0  0  0  0  0  0  0  0  0
    2.6258   -0.2020   -2.4066 C   0  0  0  0  0  0  0  0  0  0  0  0
    1.7345    0.5169   -3.3879 C   0  0  0  0  0  0  0  0  0  0  0  0
    0.9533   -0.2047   -4.3029 C   0  0  0  0  0  0  0  0  0  0  0  0
    0.1220    0.4609   -5.2055 C   0  0  0  0  0  0  0  0  0  0  0  0
    0.0641    1.8532   -5.2055 C   0  0  0  0  0  0  0  0  0  0  0  0
    0.8381    2.5821   -4.3049 C   0  0  0  0  0  0  0  0  0  0  0  0
    1.6692    1.9187   -3.4009 C   0  0  0  0  0  0  0  0  0  0  0  0
   -1.6389   -1.6966    0.2686 C   0  0  0  0  0  0  0  0  0  0  0  0
   -1.9779   -2.8267   -0.0721 O   0  0  0  0  0  0  0  0  0  0  0  0
   -2.8289   -0.4155    0.4957 S   0  0  0  0  0  0  0  0  0  0  0  0
   -3.1575   -0.6300    2.2341 C   0  0  0  0  0  0  0  0  0  0  0  0
   -2.9032    0.4224    3.1191 C   0  0  0  0  0  0  0  0  0  0  0  0
   -3.1515    0.2685    4.4848 C   0  0  0  0  0  0  0  0  0  0  0  0
   -3.6587   -0.9356    4.9712 C   0  0  0  0  0  0  0  0  0  0  0  0
   -3.9247   -1.9846    4.0928 C   0  0  0  0  0  0  0  0  0  0  0  0
   -3.6784   -1.8315    2.7268 C   0  0  0  0  0  0  0  0  0  0  0  0
   -0.1469   -0.4321    1.1963 H   0  0  0  0  0  0  0  0  0  0  0  0
    0.0979   -2.6164    2.0627 H   0  0  0  0  0  0  0  0  0  0  0  0
    0.3962   -3.2564    0.6028 H   0  0  0  0  0  0  0  0  0  0  0  0
    0.5532   -1.8290   -1.4593 H   0  0  0  0  0  0  0  0  0  0  0  0
   -0.2404   -0.2502   -1.3937 H   0  0  0  0  0  0  0  0  0  0  0  0
    3.6324    0.2282   -2.4609 H   0  0  0  0  0  0  0  0  0  0  0  0
    2.7314   -1.2599   -2.6726 H   0  0  0  0  0  0  0  0  0  0  0  0
    0.9855   -1.2920   -4.3189 H   0  0  0  0  0  0  0  0  0  0  0  0
   -0.4811   -0.1073   -5.9093 H   0  0  0  0  0  0  0  0  0  0  0  0
   -0.5834    2.3708   -5.9082 H   0  0  0  0  0  0  0  0  0  0  0  0
    0.7942    3.6682   -4.3048 H   0  0  0  0  0  0  0  0  0  0  0  0
    2.2655    2.5011   -2.7009 H   0  0  0  0  0  0  0  0  0  0  0  0
   -2.5119    1.3704    2.7567 H   0  0  0  0  0  0  0  0  0  0  0  0
   -2.9508    1.0892    5.1693 H   0  0  0  0  0  0  0  0  0  0  0  0
   -3.8536   -1.0544    6.0343 H   0  0  0  0  0  0  0  0  0  0  0  0
   -4.3290   -2.9212    4.4695 H   0  0  0  0  0  0  0  0  0  0  0  0
   -3.9010   -2.6577    2.0538 H   0  0  0  0  0  0  0  0  0  0  0  0
  1  2  1  0
  1  3  1  0
  3  4  1  0
  4  5  1  0
  5  6  1  0
  6  7  2  0
  7  8  1  0
  8  9  2  0
  9 10  1  0
 10 11  2  0
  1 12  1  0
 12 13  2  0
 12 14  1  0
 14 15  1  0
 15 16  2  0
 16 17  1  0
 17 18  2  0
 18 19  1  0
 19 20  2  0
 11  6  1  0
 20 15  1  0
  1 21  1  0
  2 22  1  0
  2 23  1  0
  3 24  1  0
  3 25  1  0
  5 26  1  0
  5 27  1  0
  7 28  1  0
  8 29  1  0
  9 30  1  0
 10 31  1  0
 11 32  1  0
 16 33  1  0
 17 34  1  0
 18 35  1  0
 19 36  1  0
 20 37  1  0
M  END
