
     RDKit          3D

 20 19  0  0  0  0  0  0  0  0999 V2000
    0.6989   -1.6663    1.1771 C   0  0  1  0  0  0  0  0  0  0  0  0
   -0.3853   -2.4192    1.8418 N   0  0  0  0  0  0  0  0  0  0  0  0
    0.1201   -0.6541    0.1561 C   0  0  0  0  0  0  0  0  0  0  0  0
   -0.7342   -1.3525   -0.9109 C   0  0  0  0  0  0  0  0  0  0  0  0
    1.2375    0.1309   -0.5423 C   0  0  0  0  0  0  0  0  0  0  0  0
    1.5236   -0.9884    2.2896 C   0  0  0  0  0  0  0  0  0  0  0  0
    0.8945   -0.0466    3.0550 N   0  0  0  0  0  0  0  0  0  0  0  0
    3.1031   -1.4078    2.6279 S   0  0  0  0  0  0  0  0  0  0  0  0
    1.3258   -2.3901    0.6414 H   0  0  0  0  0  0  0  0  0  0  0  0
   -0.8971   -1.7967    2.4646 H   0  0  0  0  0  0  0  0  0  0  0  0
    0.0388   -3.1234    2.4482 H   0  0  0  0  0  0  0  0  0  0  0  0
   -0.5224    0.0714    0.6712 H   0  0  0  0  0  0  0  0  0  0  0  0
   -1.6086   -1.8401   -0.4684 H   0  0  0  0  0  0  0  0  0  0  0  0
   -1.1046   -0.6293   -1.6457 H   0  0  0  0  0  0  0  0  0  0  0  0
   -0.1548   -2.1115   -1.4476 H   0  0  0  0  0  0  0  0  0  0  0  0
    0.8223    0.8162   -1.2892 H   0  0  0  0  0  0  0  0  0  0  0  0
    1.8061    0.7364    0.1701 H   0  0  0  0  0  0  0  0  0  0  0  0
    1.9352   -0.5416   -1.0530 H   0  0  0  0  0  0  0  0  0  0  0  0
   -0.0255    0.3129    2.8355 H   0  0  0  0  0  0  0  0  0  0  0  0
    1.4254    0.4310    3.7747 H   0  0  0  0  0  0  0  0  0  0  0  0
  1  2  1  0
  1  3  1  0
  3  4  1  0
  3  5  1  0
  1  6  1  0
  6  7  1  0
  6  8  2  0
  1  9  1  6
  2 10  1  0
  2 11  1  0
  3 12  1  0
  4 13  1  0
  4 14  1  0
  4 15  1  0
  5 16  1  0
  5 17  1  0
  5 18  1  0
  7 19  1  0
  7 20  1  0
M  END
