
     RDKit          3D

 26 25  0  0  0  0  0  0  0  0999 V2000
   -1.3084   -2.2880    0.1867 C   0  0  1  0  0  0  0  0  0  0  0  0
   -1.9337   -3.3859    0.9630 N   0  0  0  0  0  0  0  0  0  0  0  0
   -2.4017   -1.2979   -0.2427 C   0  0  0  0  0  0  0  0  0  0  0  0
   -1.9997   -0.3659   -1.3954 C   0  0  0  0  0  0  0  0  0  0  0  0
   -0.9772    0.7274   -1.0789 C   0  0  0  0  0  0  0  0  0  0  0  0
   -1.4609    1.7320   -0.0330 C   0  0  0  0  0  0  0  0  0  0  0  0
   -0.4401    2.8384    0.1852 C   0  0  0  0  0  0  0  0  0  0  0  0
   -0.1982   -1.6626    1.0564 C   0  0  0  0  0  0  0  0  0  0  0  0
   -0.5948   -1.1380    2.2567 N   0  0  0  0  0  0  0  0  0  0  0  0
    0.9883   -1.6682    0.7445 O   0  0  0  0  0  0  0  0  0  0  0  0
   -0.8388   -2.7295   -0.6997 H   0  0  0  0  0  0  0  0  0  0  0  0
   -1.2138   -4.0887    1.1440 H   0  0  0  0  0  0  0  0  0  0  0  0
   -2.1973   -3.0351    1.8830 H   0  0  0  0  0  0  0  0  0  0  0  0
   -2.7749   -0.7136    0.6049 H   0  0  0  0  0  0  0  0  0  0  0  0
   -3.2636   -1.8760   -0.6055 H   0  0  0  0  0  0  0  0  0  0  0  0
   -2.9106    0.1175   -1.7720 H   0  0  0  0  0  0  0  0  0  0  0  0
   -1.6159   -0.9729   -2.2250 H   0  0  0  0  0  0  0  0  0  0  0  0
   -0.0262    0.2853   -0.7689 H   0  0  0  0  0  0  0  0  0  0  0  0
   -0.7664    1.2674   -2.0112 H   0  0  0  0  0  0  0  0  0  0  0  0
   -2.4092    2.1769   -0.3560 H   0  0  0  0  0  0  0  0  0  0  0  0
   -1.6454    1.2349    0.9239 H   0  0  0  0  0  0  0  0  0  0  0  0
    0.5116    2.4289    0.5389 H   0  0  0  0  0  0  0  0  0  0  0  0
   -0.8044    3.5476    0.9350 H   0  0  0  0  0  0  0  0  0  0  0  0
   -0.2543    3.3902   -0.7418 H   0  0  0  0  0  0  0  0  0  0  0  0
   -1.5549   -0.8733    2.4244 H   0  0  0  0  0  0  0  0  0  0  0  0
    0.1215   -0.6555    2.7851 H   0  0  0  0  0  0  0  0  0  0  0  0
  1  2  1  0
  1  3  1  0
  3  4  1  0
  4  5  1  0
  5  6  1  0
  6  7  1  0
  1  8  1  0
  8  9  1  0
  8 10  2  0
  1 11  1  6
  2 12  1  0
  2 13  1  0
  3 14  1  0
  3 15  1  0
  4 16  1  0
  4 17  1  0
  5 18  1  0
  5 19  1  0
  6 20  1  0
  6 21  1  0
  7 22  1  0
  7 23  1  0
  7 24  1  0
  9 25  1  0
  9 26  1  0
M  END
