
     RDKit          3D

 22 21  0  0  0  0  0  0  0  0999 V2000
   -0.8159    0.9094    0.5135 C   0  0  1  0  0  0  0  0  0  0  0  0
   -1.5656    2.1940    0.5661 N   0  0  0  0  0  0  0  0  0  0  0  0
    0.6528    1.0113    0.9647 C   0  0  0  0  0  0  0  0  0  0  0  0
    1.6323    2.3841    0.2386 S   0  0  0  0  0  0  0  0  0  0  0  0
    1.5686    1.9305   -1.5226 C   0  0  0  0  0  0  0  0  0  0  0  0
    0.6346    2.8796   -2.2485 C   0  0  0  0  0  0  0  0  0  0  0  0
    1.2383    3.8780   -2.9598 N   0  0  0  0  0  0  0  0  0  0  0  0
   -0.5891    2.7949   -2.2008 O   0  0  0  0  0  0  0  0  0  0  0  0
   -1.5431   -0.1294    1.3900 C   0  0  0  0  0  0  0  0  0  0  0  0
   -2.9077   -0.0330    1.3440 N   0  0  0  0  0  0  0  0  0  0  0  0
   -0.9856   -1.0113    2.0331 O   0  0  0  0  0  0  0  0  0  0  0  0
   -0.8667    0.5254   -0.5124 H   0  0  0  0  0  0  0  0  0  0  0  0
   -1.3825    2.6788   -0.3247 H   0  0  0  0  0  0  0  0  0  0  0  0
   -1.1295    2.7911    1.2708 H   0  0  0  0  0  0  0  0  0  0  0  0
    1.1796    0.0724    0.7588 H   0  0  0  0  0  0  0  0  0  0  0  0
    0.6947    1.1561    2.0510 H   0  0  0  0  0  0  0  0  0  0  0  0
    1.2371    0.9001   -1.6773 H   0  0  0  0  0  0  0  0  0  0  0  0
    2.5776    2.0137   -1.9378 H   0  0  0  0  0  0  0  0  0  0  0  0
    2.1669    4.1889   -2.7044 H   0  0  0  0  0  0  0  0  0  0  0  0
    0.6158    4.5835   -3.3347 H   0  0  0  0  0  0  0  0  0  0  0  0
   -3.2678    0.8774    1.0665 H   0  0  0  0  0  0  0  0  0  0  0  0
   -3.4337   -0.5828    2.0074 H   0  0  0  0  0  0  0  0  0  0  0  0
  1  2  1  0
  1  3  1  0
  3  4  1  0
  4  5  1  0
  5  6  1  0
  6  7  1  0
  6  8  2  0
  1  9  1  0
  9 10  1  0
  9 11  2  0
  1 12  1  6
  2 13  1  0
  2 14  1  0
  3 15  1  0
  3 16  1  0
  5 17  1  0
  5 18  1  0
  7 19  1  0
  7 20  1  0
 10 21  1  0
 10 22  1  0
M  END
