
     RDKit          3D

 23 23  0  0  0  0  0  0  0  0999 V2000
   -2.0113   -0.2234    2.4235 C   0  0  2  0  0  0  0  0  0  0  0  0
   -3.0570   -1.3112    2.3611 C   0  0  0  0  0  0  0  0  0  0  0  0
   -1.8208    0.2762    1.0785 N   0  0  0  0  0  0  0  0  0  0  0  0
   -0.7094   -0.7178    2.9441 C   0  0  0  0  0  0  0  0  0  0  0  0
   -0.6014   -1.1917    4.0627 O   0  0  0  0  0  0  0  0  0  0  0  0
    0.8794   -0.6354    1.8755 Se  0  0  0  0  0  2  0  0  0  0  0  0
    0.4607   -0.9050    0.0115 C   0  0  0  0  0  0  0  0  0  0  0  0
   -0.0440   -2.1028   -0.4495 C   0  0  0  0  0  0  0  0  0  0  0  0
   -0.3448   -2.3000   -1.7817 C   0  0  0  0  0  0  0  0  0  0  0  0
   -0.1530   -1.3024   -2.7154 C   0  0  0  0  0  0  0  0  0  0  0  0
    0.3520   -0.1049   -2.2519 C   0  0  0  0  0  0  0  0  0  0  0  0
    0.6531    0.0932   -0.9204 C   0  0  0  0  0  0  0  0  0  0  0  0
   -2.3832    0.5768    3.0794 H   0  0  0  0  0  0  0  0  0  0  0  0
   -3.6230   -1.3678    3.2928 H   0  0  0  0  0  0  0  0  0  0  0  0
   -2.5908   -2.2949    2.1822 H   0  0  0  0  0  0  0  0  0  0  0  0
   -3.7499   -1.0753    1.5072 H   0  0  0  0  0  0  0  0  0  0  0  0
   -1.2884    1.1758    1.0602 H   0  0  0  0  0  0  0  0  0  0  0  0
   -2.7129    0.3932    0.5803 H   0  0  0  0  0  0  0  0  0  0  0  0
   -0.2185   -2.9286    0.2328 H   0  0  0  0  0  0  0  0  0  0  0  0
   -0.7446   -3.2469   -2.1510 H   0  0  0  0  0  0  0  0  0  0  0  0
   -0.3847   -1.4403   -3.7698 H   0  0  0  0  0  0  0  0  0  0  0  0
    0.5118    0.6990   -2.9740 H   0  0  0  0  0  0  0  0  0  0  0  0
    1.0535    1.0533   -0.5744 H   0  0  0  0  0  0  0  0  0  0  0  0
  1  2  1  0
  1  3  1  0
  1  4  1  0
  4  5  2  0
  4  6  1  0
  6  7  1  0
  7  8  2  0
  8  9  1  0
  9 10  2  0
 10 11  1  0
 11 12  2  0
 12  7  1  0
  1 13  1  1
  2 14  1  0
  2 15  1  0
  2 16  1  0
  3 17  1  0
  3 18  1  0
  8 19  1  0
  9 20  1  0
 10 21  1  0
 11 22  1  0
 12 23  1  0
M  END
