
     RDKit          3D

 33 34  0  0  0  0  0  0  0  0999 V2000
    1.5219   -0.5210   -0.6775 C   0  0  1  0  0  0  0  0  0  0  0  0
    1.8932   -0.7892   -2.0645 N   0  0  0  0  0  0  0  0  0  0  0  0
    1.5974    0.9455   -0.4864 C   0  0  0  0  0  0  0  0  0  0  0  0
    1.2643    1.4666    0.8342 C   0  0  0  0  0  0  0  0  0  0  0  0
    2.1543    1.6359    1.8742 C   0  0  0  0  0  0  0  0  0  0  0  0
    1.7739    2.1378    3.0934 C   0  0  0  0  0  0  0  0  0  0  0  0
    0.4609    2.4855    3.2900 C   0  0  0  0  0  0  0  0  0  0  0  0
   -0.4660    2.3367    2.2863 C   0  0  0  0  0  0  0  0  0  0  0  0
   -0.0435    1.8300    1.0792 C   0  0  0  0  0  0  0  0  0  0  0  0
    0.2632   -1.1787   -0.3587 C   0  0  0  0  0  0  0  0  0  0  0  0
   -0.3176   -1.7982   -1.2419 O   0  0  0  0  0  0  0  0  0  0  0  0
   -0.5848   -1.1642    1.3524 Se  0  0  0  0  0  2  0  0  0  0  0  0
   -2.4716   -1.4173    1.2159 C   0  0  0  0  0  0  0  0  0  0  0  0
   -3.0869   -2.3737    2.0026 C   0  0  0  0  0  0  0  0  0  0  0  0
   -4.4562   -2.5134    1.8617 C   0  0  0  0  0  0  0  0  0  0  0  0
   -5.1802   -1.7361    0.9775 C   0  0  0  0  0  0  0  0  0  0  0  0
   -4.5420   -0.7935    0.2085 C   0  0  0  0  0  0  0  0  0  0  0  0
   -3.1839   -0.6364    0.3307 C   0  0  0  0  0  0  0  0  0  0  0  0
    2.3285   -1.0100   -0.0626 H   0  0  0  0  0  0  0  0  0  0  0  0
    1.8859    0.0758   -2.6468 H   0  0  0  0  0  0  0  0  0  0  0  0
    1.2154   -1.4793   -2.5016 H   0  0  0  0  0  0  0  0  0  0  0  0
    2.6449    1.2594   -0.7195 H   0  0  0  0  0  0  0  0  0  0  0  0
    0.9674    1.4901   -1.2368 H   0  0  0  0  0  0  0  0  0  0  0  0
    3.1940    1.3565    1.7067 H   0  0  0  0  0  0  0  0  0  0  0  0
    2.4625    2.2729    3.9099 H   0  0  0  0  0  0  0  0  0  0  0  0
    0.1467    2.8887    4.2641 H   0  0  0  0  0  0  0  0  0  0  0  0
   -1.5167    2.6112    2.4330 H   0  0  0  0  0  0  0  0  0  0  0  0
   -0.8265    1.7339    0.3102 H   0  0  0  0  0  0  0  0  0  0  0  0
   -2.5090   -2.9749    2.6900 H   0  0  0  0  0  0  0  0  0  0  0  0
   -4.9864   -3.2611    2.4669 H   0  0  0  0  0  0  0  0  0  0  0  0
   -6.2465   -1.8559    0.8782 H   0  0  0  0  0  0  0  0  0  0  0  0
   -5.0853   -0.1725   -0.4908 H   0  0  0  0  0  0  0  0  0  0  0  0
   -2.6515    0.0979   -0.2614 H   0  0  0  0  0  0  0  0  0  0  0  0
  1  2  1  0
  1  3  1  0
  3  4  1  0
  4  5  2  0
  5  6  1  0
  6  7  2  0
  7  8  1  0
  8  9  2  0
  1 10  1  0
 10 11  2  0
 10 12  1  0
 12 13  1  0
 13 14  2  0
 14 15  1  0
 15 16  2  0
 16 17  1  0
 17 18  2  0
  9  4  1  0
 18 13  1  0
  1 19  1  1
  2 20  1  0
  2 21  1  0
  3 22  1  0
  3 23  1  0
  5 24  1  0
  6 25  1  0
  7 26  1  0
  8 27  1  0
  9 28  1  0
 14 29  1  0
 15 30  1  0
 16 31  1  0
 17 32  1  0
 18 33  1  0
M  END
