
     RDKit          3D

 23 23  0  0  0  0  0  0  0  0999 V2000
    1.5638    1.1477   -1.1789 C   0  0  1  0  0  0  0  0  0  0  0  0
    0.2253    1.6899   -1.4847 N   0  0  0  0  0  0  0  0  0  0  0  0
    1.4963   -0.3689   -0.8840 C   0  0  0  0  0  0  0  0  0  0  0  0
    0.6930   -0.7346    0.3522 C   0  0  0  0  0  0  0  0  0  0  0  0
   -0.5087   -1.3382    0.2577 C   0  0  0  0  0  0  0  0  0  0  0  0
   -1.3413   -1.7470    1.4408 C   0  0  0  0  0  0  0  0  0  0  0  0
   -0.7052   -1.4239    2.7609 C   0  0  0  0  0  0  0  0  0  0  0  0
    0.4937   -0.8318    2.8731 C   0  0  0  0  0  0  0  0  0  0  0  0
    1.3283   -0.4242    1.6919 C   0  0  0  0  0  0  0  0  0  0  0  0
    2.5206    1.3937   -2.2860 C   0  0  0  0  0  0  0  0  0  0  0  0
    3.2894    1.5986   -3.1323 N   0  0  0  0  0  0  0  0  0  0  0  0
    1.9391    1.6715   -0.2917 H   0  0  0  0  0  0  0  0  0  0  0  0
   -0.3989    1.4903   -0.7028 H   0  0  0  0  0  0  0  0  0  0  0  0
    0.2820    2.7048   -1.5620 H   0  0  0  0  0  0  0  0  0  0  0  0
    1.0919   -0.8921   -1.7626 H   0  0  0  0  0  0  0  0  0  0  0  0
    2.5126   -0.7676   -0.7576 H   0  0  0  0  0  0  0  0  0  0  0  0
   -0.9330   -1.5600   -0.7192 H   0  0  0  0  0  0  0  0  0  0  0  0
   -1.5243   -2.8261    1.3895 H   0  0  0  0  0  0  0  0  0  0  0  0
   -2.3124   -1.2430    1.3815 H   0  0  0  0  0  0  0  0  0  0  0  0
   -1.2579   -1.6960    3.6560 H   0  0  0  0  0  0  0  0  0  0  0  0
    0.9017   -0.6298    3.8599 H   0  0  0  0  0  0  0  0  0  0  0  0
    1.5159    0.6526    1.7665 H   0  0  0  0  0  0  0  0  0  0  0  0
    2.2954   -0.9364    1.7578 H   0  0  0  0  0  0  0  0  0  0  0  0
  1  2  1  0
  1  3  1  0
  3  4  1  0
  4  5  2  0
  5  6  1  0
  6  7  1  0
  7  8  2  0
  8  9  1  0
  1 10  1  0
 10 11  3  0
  9  4  1  0
  1 12  1  1
  2 13  1  0
  2 14  1  0
  3 15  1  0
  3 16  1  0
  5 17  1  0
  6 18  1  0
  6 19  1  0
  7 20  1  0
  8 21  1  0
  9 22  1  0
  9 23  1  0
M  END
