
     RDKit          3D

 26 26  0  0  0  0  0  0  0  0999 V2000
   -1.2203   -1.1904   -0.8326 C   0  0  1  0  0  0  0  0  0  0  0  0
   -2.4755   -1.6197   -0.1747 N   0  0  0  0  0  0  0  0  0  0  0  0
   -0.0022   -1.3005    0.1108 C   0  0  0  0  0  0  0  0  0  0  0  0
    0.1486   -0.1413    1.0806 C   0  0  0  0  0  0  0  0  0  0  0  0
    1.2019    0.6983    1.0105 C   0  0  0  0  0  0  0  0  0  0  0  0
    1.4411    1.8321    1.9683 C   0  0  0  0  0  0  0  0  0  0  0  0
    0.4153    1.9256    3.0583 C   0  0  0  0  0  0  0  0  0  0  0  0
   -0.6369    1.0978    3.1450 C   0  0  0  0  0  0  0  0  0  0  0  0
   -0.9090   -0.0043    2.1570 C   0  0  0  0  0  0  0  0  0  0  0  0
   -1.0955   -2.0111   -2.1337 C   0  0  0  0  0  0  0  0  0  0  0  0
   -1.7447   -1.4872   -3.2206 N   0  0  0  0  0  0  0  0  0  0  0  0
   -0.3848   -3.5167   -2.2657 S   0  0  0  0  0  0  0  0  0  0  0  0
   -1.3474   -0.1390   -1.1222 H   0  0  0  0  0  0  0  0  0  0  0  0
   -2.3827   -2.6037    0.0850 H   0  0  0  0  0  0  0  0  0  0  0  0
   -3.2325   -1.5891   -0.8579 H   0  0  0  0  0  0  0  0  0  0  0  0
   -0.0408   -2.2347    0.6872 H   0  0  0  0  0  0  0  0  0  0  0  0
    0.9110   -1.3700   -0.4957 H   0  0  0  0  0  0  0  0  0  0  0  0
    1.9541    0.5698    0.2364 H   0  0  0  0  0  0  0  0  0  0  0  0
    1.4556    2.7741    1.4089 H   0  0  0  0  0  0  0  0  0  0  0  0
    2.4290    1.7036    2.4250 H   0  0  0  0  0  0  0  0  0  0  0  0
    0.5496    2.7061    3.8016 H   0  0  0  0  0  0  0  0  0  0  0  0
   -1.3494    1.2149    3.9567 H   0  0  0  0  0  0  0  0  0  0  0  0
   -1.8808    0.2015    1.6970 H   0  0  0  0  0  0  0  0  0  0  0  0
   -0.9865   -0.9492    2.7072 H   0  0  0  0  0  0  0  0  0  0  0  0
   -2.1627   -0.5644   -3.2153 H   0  0  0  0  0  0  0  0  0  0  0  0
   -1.7050   -1.9825   -4.1044 H   0  0  0  0  0  0  0  0  0  0  0  0
  1  2  1  0
  1  3  1  0
  3  4  1  0
  4  5  2  0
  5  6  1  0
  6  7  1  0
  7  8  2  0
  8  9  1  0
  1 10  1  0
 10 11  1  0
 10 12  2  0
  9  4  1  0
  1 13  1  6
  2 14  1  0
  2 15  1  0
  3 16  1  0
  3 17  1  0
  5 18  1  0
  6 19  1  0
  6 20  1  0
  7 21  1  0
  8 22  1  0
  9 23  1  0
  9 24  1  0
 11 25  1  0
 11 26  1  0
M  END
