
     RDKit          3D

 18 17  0  0  0  0  0  0  0  0999 V2000
   -0.7639    1.1958   -0.4983 C   0  0  1  0  0  0  0  0  0  0  0  0
   -0.5734    2.4798    0.2007 N   0  0  0  0  0  0  0  0  0  0  0  0
    0.0839    0.0985    0.1638 C   0  0  0  0  0  0  0  0  0  0  0  0
    0.3998   -1.0928   -0.7509 C   0  0  0  0  0  0  0  0  0  0  0  0
   -0.8037   -1.9288   -1.1507 C   0  0  0  0  0  0  0  0  0  0  0  0
   -2.2648    0.9039   -0.4736 C   0  0  0  0  0  0  0  0  0  0  0  0
   -2.8125    0.1052    0.2817 O   0  0  0  0  0  0  0  0  0  0  0  0
   -0.4690    1.3208   -1.5458 H   0  0  0  0  0  0  0  0  0  0  0  0
    0.4199    2.7113    0.2168 H   0  0  0  0  0  0  0  0  0  0  0  0
   -0.8394    2.3605    1.1814 H   0  0  0  0  0  0  0  0  0  0  0  0
    1.0525    0.5229    0.4613 H   0  0  0  0  0  0  0  0  0  0  0  0
   -0.3886   -0.2612    1.0863 H   0  0  0  0  0  0  0  0  0  0  0  0
    1.1104   -1.7441   -0.2272 H   0  0  0  0  0  0  0  0  0  0  0  0
    0.9104   -0.7388   -1.6543 H   0  0  0  0  0  0  0  0  0  0  0  0
   -1.4787   -1.3722   -1.8066 H   0  0  0  0  0  0  0  0  0  0  0  0
   -1.3614   -2.2644   -0.2710 H   0  0  0  0  0  0  0  0  0  0  0  0
   -0.4754   -2.8177   -1.6993 H   0  0  0  0  0  0  0  0  0  0  0  0
   -2.8648    1.5099   -1.1752 H   0  0  0  0  0  0  0  0  0  0  0  0
  1  2  1  0
  1  3  1  0
  3  4  1  0
  4  5  1  0
  1  6  1  0
  6  7  2  0
  1  8  1  6
  2  9  1  0
  2 10  1  0
  3 11  1  0
  3 12  1  0
  4 13  1  0
  4 14  1  0
  5 15  1  0
  5 16  1  0
  5 17  1  0
  6 18  1  0
M  END
