
     RDKit          3D

 21 20  0  0  0  0  0  0  0  0999 V2000
    1.1085   -0.9905    1.0379 C   0  0  1  0  0  0  0  0  0  0  0  0
    0.6047   -0.7890    2.4003 N   0  0  0  0  0  0  0  0  0  0  0  0
    0.0049   -0.7531   -0.0007 C   0  0  0  0  0  0  0  0  0  0  0  0
   -0.2594    0.6761   -0.4663 C   0  0  0  0  0  0  0  0  0  0  0  0
   -0.8541    1.8528    0.7303 S   0  0  0  0  0  6  0  0  0  0  0  0
   -2.1991    1.0485    1.5712 C   0  0  0  0  0  0  0  0  0  0  0  0
   -1.4364    2.9478   -0.0263 O   0  0  0  0  0  0  0  0  0  0  0  0
    0.2057    2.1272    1.6800 O   0  0  0  0  0  0  0  0  0  0  0  0
    2.3387   -0.1307    0.7809 C   0  0  0  0  0  0  0  0  0  0  0  0
    3.1569   -0.3972   -0.0971 O   0  0  0  0  0  0  0  0  0  0  0  0
    1.4375   -2.0349    0.9702 H   0  0  0  0  0  0  0  0  0  0  0  0
    1.3746   -0.8640    3.0693 H   0  0  0  0  0  0  0  0  0  0  0  0
   -0.0300   -1.5503    2.6445 H   0  0  0  0  0  0  0  0  0  0  0  0
   -0.9319   -1.2091    0.3439 H   0  0  0  0  0  0  0  0  0  0  0  0
    0.2838   -1.3226   -0.8985 H   0  0  0  0  0  0  0  0  0  0  0  0
   -1.0231    0.6458   -1.2530 H   0  0  0  0  0  0  0  0  0  0  0  0
    0.6372    1.1158   -0.9160 H   0  0  0  0  0  0  0  0  0  0  0  0
   -2.6643    1.7810    2.2348 H   0  0  0  0  0  0  0  0  0  0  0  0
   -2.9242    0.7128    0.8273 H   0  0  0  0  0  0  0  0  0  0  0  0
   -1.8317    0.2094    2.1577 H   0  0  0  0  0  0  0  0  0  0  0  0
    2.4319    0.7935    1.3764 H   0  0  0  0  0  0  0  0  0  0  0  0
  1  2  1  0
  1  3  1  0
  3  4  1  0
  4  5  1  0
  5  6  1  0
  5  7  2  0
  5  8  2  0
  1  9  1  0
  9 10  2  0
  1 11  1  1
  2 12  1  0
  2 13  1  0
  3 14  1  0
  3 15  1  0
  4 16  1  0
  4 17  1  0
  6 18  1  0
  6 19  1  0
  6 20  1  0
  9 21  1  0
M  END
