
     RDKit          3D

 34 34  0  0  0  0  0  0  0  0999 V2000
   -3.2697   -2.1629    1.4141 C   0  0  0  0  0  0  0  0  0  0  0  0
   -1.5807   -1.4433    1.7940 Si  0  0  0  0  0  4  0  0  0  0  0  0
   -1.7890    0.2223    2.6330 C   0  0  0  0  0  0  0  0  0  0  0  0
   -0.6514   -2.6034    2.9364 C   0  0  0  0  0  0  0  0  0  0  0  0
   -0.6092   -1.2161    0.1887 C   0  0  0  0  0  0  0  0  0  0  0  0
    0.0244   -1.0348   -0.8158 C   0  0  0  0  0  0  0  0  0  0  0  0
    0.8218   -0.7963   -2.0330 C   0  0  2  0  0  0  0  0  0  0  0  0
    2.1854   -1.2898   -1.8207 N   0  0  0  0  0  0  0  0  0  0  0  0
    0.7839    0.6858   -2.4738 C   0  0  0  0  0  0  0  0  0  0  0  0
    1.4017    1.6843   -1.5150 C   0  0  0  0  0  0  0  0  0  0  0  0
    2.7578    2.0240   -1.6201 C   0  0  0  0  0  0  0  0  0  0  0  0
    3.3314    2.9346   -0.7315 C   0  0  0  0  0  0  0  0  0  0  0  0
    2.5561    3.5151    0.2703 C   0  0  0  0  0  0  0  0  0  0  0  0
    1.2067    3.1861    0.3841 C   0  0  0  0  0  0  0  0  0  0  0  0
    0.6315    2.2763   -0.5045 C   0  0  0  0  0  0  0  0  0  0  0  0
   -3.8334   -1.4998    0.7510 H   0  0  0  0  0  0  0  0  0  0  0  0
   -3.8474   -2.2977    2.3334 H   0  0  0  0  0  0  0  0  0  0  0  0
   -3.1750   -3.1368    0.9245 H   0  0  0  0  0  0  0  0  0  0  0  0
   -0.8149    0.6626    2.8661 H   0  0  0  0  0  0  0  0  0  0  0  0
   -2.3320    0.9168    1.9850 H   0  0  0  0  0  0  0  0  0  0  0  0
   -2.3491    0.1165    3.5668 H   0  0  0  0  0  0  0  0  0  0  0  0
    0.3377   -2.2016    3.1760 H   0  0  0  0  0  0  0  0  0  0  0  0
   -1.1991   -2.7433    3.8732 H   0  0  0  0  0  0  0  0  0  0  0  0
   -0.5185   -3.5837    2.4691 H   0  0  0  0  0  0  0  0  0  0  0  0
    0.3850   -1.3887   -2.8463 H   0  0  0  0  0  0  0  0  0  0  0  0
    2.5906   -0.7554   -1.0503 H   0  0  0  0  0  0  0  0  0  0  0  0
    2.1265   -2.2486   -1.4806 H   0  0  0  0  0  0  0  0  0  0  0  0
   -0.2577    0.9834   -2.6595 H   0  0  0  0  0  0  0  0  0  0  0  0
    1.2867    0.7825   -3.4461 H   0  0  0  0  0  0  0  0  0  0  0  0
    3.3756    1.5746   -2.3952 H   0  0  0  0  0  0  0  0  0  0  0  0
    4.3839    3.1901   -0.8217 H   0  0  0  0  0  0  0  0  0  0  0  0
    3.0033    4.2239    0.9619 H   0  0  0  0  0  0  0  0  0  0  0  0
    0.6010    3.6377    1.1651 H   0  0  0  0  0  0  0  0  0  0  0  0
   -0.4225    2.0286   -0.4011 H   0  0  0  0  0  0  0  0  0  0  0  0
  1  2  1  0
  2  3  1  0
  2  4  1  0
  2  5  1  0
  5  6  3  0
  6  7  1  0
  7  8  1  0
  7  9  1  0
  9 10  1  0
 10 11  2  0
 11 12  1  0
 12 13  2  0
 13 14  1  0
 14 15  2  0
 15 10  1  0
  1 16  1  0
  1 17  1  0
  1 18  1  0
  3 19  1  0
  3 20  1  0
  3 21  1  0
  4 22  1  0
  4 23  1  0
  4 24  1  0
  7 25  1  6
  8 26  1  0
  8 27  1  0
  9 28  1  0
  9 29  1  0
 11 30  1  0
 12 31  1  0
 13 32  1  0
 14 33  1  0
 15 34  1  0
M  END
