
     RDKit          3D

 37 37  0  0  0  0  0  0  0  0999 V2000
    1.4942   -3.2727    0.0804 C   0  0  0  0  0  0  0  0  0  0  0  0
    0.3993   -2.2069    0.2718 C   0  0  1  0  0  0  0  0  0  0  0  0
   -0.8189   -2.6885   -0.3937 N   0  0  0  0  0  0  0  0  0  0  0  0
    0.1725   -1.9888    1.7966 C   0  0  0  0  0  0  0  0  0  0  0  0
   -0.7901   -0.8868    2.1953 C   0  0  0  0  0  0  0  0  0  0  0  0
   -0.3067    0.3725    2.5807 C   0  0  0  0  0  0  0  0  0  0  0  0
   -1.1887    1.3901    2.9482 C   0  0  0  0  0  0  0  0  0  0  0  0
   -2.5627    1.1605    2.9353 C   0  0  0  0  0  0  0  0  0  0  0  0
   -3.0552   -0.0855    2.5520 C   0  0  0  0  0  0  0  0  0  0  0  0
   -2.1740   -1.1037    2.1836 C   0  0  0  0  0  0  0  0  0  0  0  0
    0.8338   -0.9568   -0.3866 C   0  0  0  0  0  0  0  0  0  0  0  0
    1.1624    0.0758   -0.9058 C   0  0  0  0  0  0  0  0  0  0  0  0
    1.5990    1.7478   -1.6646 Si  0  0  0  0  0  4  0  0  0  0  0  0
    0.6176    2.0065   -3.2408 C   0  0  0  0  0  0  0  0  0  0  0  0
    3.4322    1.8016   -2.0591 C   0  0  0  0  0  0  0  0  0  0  0  0
    1.1886    3.1129   -0.4440 C   0  0  0  0  0  0  0  0  0  0  0  0
    1.6916   -3.4647   -0.9818 H   0  0  0  0  0  0  0  0  0  0  0  0
    1.2128   -4.2248    0.5457 H   0  0  0  0  0  0  0  0  0  0  0  0
    2.4423   -2.9517    0.5293 H   0  0  0  0  0  0  0  0  0  0  0  0
   -1.0409   -3.6251   -0.0672 H   0  0  0  0  0  0  0  0  0  0  0  0
   -0.6389   -2.7614   -1.3936 H   0  0  0  0  0  0  0  0  0  0  0  0
   -0.1742   -2.9255    2.2566 H   0  0  0  0  0  0  0  0  0  0  0  0
    1.1394   -1.7825    2.2785 H   0  0  0  0  0  0  0  0  0  0  0  0
    0.7624    0.5710    2.5871 H   0  0  0  0  0  0  0  0  0  0  0  0
   -0.8026    2.3629    3.2397 H   0  0  0  0  0  0  0  0  0  0  0  0
   -3.2498    1.9532    3.2177 H   0  0  0  0  0  0  0  0  0  0  0  0
   -4.1266   -0.2644    2.5323 H   0  0  0  0  0  0  0  0  0  0  0  0
   -2.5740   -2.0659    1.8735 H   0  0  0  0  0  0  0  0  0  0  0  0
    0.8600    2.9733   -3.6922 H   0  0  0  0  0  0  0  0  0  0  0  0
    0.8424    1.2230   -3.9706 H   0  0  0  0  0  0  0  0  0  0  0  0
   -0.4569    1.9852   -3.0360 H   0  0  0  0  0  0  0  0  0  0  0  0
    3.7044    2.7666   -2.4968 H   0  0  0  0  0  0  0  0  0  0  0  0
    4.0279    1.6574   -1.1526 H   0  0  0  0  0  0  0  0  0  0  0  0
    3.6981    1.0157   -2.7723 H   0  0  0  0  0  0  0  0  0  0  0  0
    1.4384    4.0925   -0.8622 H   0  0  0  0  0  0  0  0  0  0  0  0
    1.7516    2.9836    0.4851 H   0  0  0  0  0  0  0  0  0  0  0  0
    0.1217    3.1064   -0.2010 H   0  0  0  0  0  0  0  0  0  0  0  0
  1  2  1  0
  2  3  1  0
  2  4  1  0
  4  5  1  0
  5  6  2  0
  6  7  1  0
  7  8  2  0
  8  9  1  0
  9 10  2  0
  2 11  1  6
 11 12  3  0
 12 13  1  0
 13 14  1  0
 13 15  1  0
 13 16  1  0
 10  5  1  0
  1 17  1  0
  1 18  1  0
  1 19  1  0
  3 20  1  0
  3 21  1  0
  4 22  1  0
  4 23  1  0
  6 24  1  0
  7 25  1  0
  8 26  1  0
  9 27  1  0
 10 28  1  0
 14 29  1  0
 14 30  1  0
 14 31  1  0
 15 32  1  0
 15 33  1  0
 15 34  1  0
 16 35  1  0
 16 36  1  0
 16 37  1  0
M  END
