
     RDKit          3D

 16 15  0  0  0  0  0  0  0  0999 V2000
    0.8248   -1.5730    0.9289 C   0  0  0  0  0  0  0  0  0  0  0  0
    0.2410   -0.1618    0.9568 C   0  0  2  0  0  0  0  0  0  0  0  0
   -0.9978   -0.1562    0.1708 N   0  0  0  0  0  0  0  0  0  0  0  0
    1.1938    0.8965    0.3723 C   0  0  0  0  0  0  0  0  0  0  0  0
    2.5359    1.0270    1.0777 C   0  0  0  0  0  0  0  0  0  0  0  0
    2.3315    1.7639    2.8671 Br  0  0  0  0  0  0  0  0  0  0  0  0
    1.6875   -1.6582    1.5967 H   0  0  0  0  0  0  0  0  0  0  0  0
    0.0877   -2.3104    1.2673 H   0  0  0  0  0  0  0  0  0  0  0  0
    1.1451   -1.8558   -0.0800 H   0  0  0  0  0  0  0  0  0  0  0  0
   -0.0176    0.0925    1.9903 H   0  0  0  0  0  0  0  0  0  0  0  0
   -1.6583   -0.8243    0.5678 H   0  0  0  0  0  0  0  0  0  0  0  0
   -1.4449    0.7576    0.2438 H   0  0  0  0  0  0  0  0  0  0  0  0
    0.6924    1.8739    0.3705 H   0  0  0  0  0  0  0  0  0  0  0  0
    1.3929    0.6530   -0.6803 H   0  0  0  0  0  0  0  0  0  0  0  0
    3.0683    0.0785    1.1737 H   0  0  0  0  0  0  0  0  0  0  0  0
    3.1797    1.7325    0.5439 H   0  0  0  0  0  0  0  0  0  0  0  0
  1  2  1  0
  2  3  1  0
  2  4  1  0
  4  5  1  0
  5  6  1  0
  1  7  1  0
  1  8  1  0
  1  9  1  0
  2 10  1  1
  3 11  1  0
  3 12  1  0
  4 13  1  0
  4 14  1  0
  5 15  1  0
  5 16  1  0
M  END
