
     RDKit          3D

 22 21  0  0  0  0  0  0  0  0999 V2000
    0.8712    2.9462   -1.4432 C   0  0  0  0  0  0  0  0  0  0  0  0
    0.8800    1.1482   -1.6402 S   0  0  0  0  0  0  0  0  0  0  0  0
    0.7752    0.6742    0.1207 C   0  0  0  0  0  0  0  0  0  0  0  0
    0.1641   -0.7220    0.2989 C   0  0  0  0  0  0  0  0  0  0  0  0
   -1.3545   -0.7497    0.5422 C   0  0  2  0  0  0  0  0  0  0  0  0
   -2.0965   -0.0539   -0.5223 N   0  0  0  0  0  0  0  0  0  0  0  0
   -1.7640   -0.2012    1.9296 C   0  0  0  0  0  0  0  0  0  0  0  0
   -2.8664    0.3440    2.0855 O   0  0  0  0  0  0  0  0  0  0  0  0
   -0.8321   -0.3991    3.4704 S   0  0  0  0  0  6  0  0  0  0  0  0
   -0.6549   -1.8296    3.6397 O   0  0  0  0  0  0  0  0  0  0  0  0
    0.2943    0.5119    3.3880 O   0  0  0  0  0  0  0  0  0  0  0  0
    0.9514    3.4151   -2.4287 H   0  0  0  0  0  0  0  0  0  0  0  0
    1.7173    3.2731   -0.8305 H   0  0  0  0  0  0  0  0  0  0  0  0
   -0.0656    3.2702   -0.9810 H   0  0  0  0  0  0  0  0  0  0  0  0
    1.8013    0.6659    0.5012 H   0  0  0  0  0  0  0  0  0  0  0  0
    0.2155    1.4259    0.6858 H   0  0  0  0  0  0  0  0  0  0  0  0
    0.4080   -1.3637   -0.5576 H   0  0  0  0  0  0  0  0  0  0  0  0
    0.6588   -1.1933    1.1578 H   0  0  0  0  0  0  0  0  0  0  0  0
   -1.6748   -1.7999    0.5459 H   0  0  0  0  0  0  0  0  0  0  0  0
   -3.0996   -0.1280   -0.3486 H   0  0  0  0  0  0  0  0  0  0  0  0
   -1.9065   -0.4831   -1.4272 H   0  0  0  0  0  0  0  0  0  0  0  0
   -1.6375    0.0327    4.4677 H   0  0  0  0  0  0  0  0  0  0  0  0
  1  2  1  0
  2  3  1  0
  3  4  1  0
  4  5  1  0
  5  6  1  0
  5  7  1  0
  7  8  2  0
  7  9  1  0
  9 10  2  0
  9 11  2  0
  1 12  1  0
  1 13  1  0
  1 14  1  0
  3 15  1  0
  3 16  1  0
  4 17  1  0
  4 18  1  0
  5 19  1  1
  6 20  1  0
  6 21  1  0
  9 22  1  0
M  END
