
     RDKit          3D

 31 30  0  0  0  0  0  0  0  0999 V2000
    2.9422    3.5582   -0.0223 C   0  0  0  0  0  0  0  0  0  0  0  0
    2.2696    2.2065   -0.2166 C   0  0  0  0  0  0  0  0  0  0  0  0
    1.4628    1.8051    1.0181 C   0  0  0  0  0  0  0  0  0  0  0  0
    0.9373    0.3588    1.0113 C   0  0  0  0  0  0  0  0  0  0  0  0
   -0.2772    0.0962    0.0865 C   0  0  1  0  0  0  0  0  0  0  0  0
    0.1760    0.1563   -1.3072 N   0  0  0  0  0  0  0  0  0  0  0  0
   -1.0485   -1.2414    0.4059 C   0  0  0  0  0  0  0  0  0  0  0  0
   -2.2391   -1.4251   -0.5644 C   0  0  0  0  0  0  0  0  0  0  0  0
   -1.6393   -1.1934    1.8335 C   0  0  0  0  0  0  0  0  0  0  0  0
   -0.1434   -2.4843    0.3004 C   0  0  0  0  0  0  0  0  0  0  0  0
    3.5048    3.8337   -0.9198 H   0  0  0  0  0  0  0  0  0  0  0  0
    3.6404    3.5324    0.8205 H   0  0  0  0  0  0  0  0  0  0  0  0
    2.2010    4.3410    0.1684 H   0  0  0  0  0  0  0  0  0  0  0  0
    1.6204    2.2745   -1.0943 H   0  0  0  0  0  0  0  0  0  0  0  0
    3.0362    1.4523   -0.4270 H   0  0  0  0  0  0  0  0  0  0  0  0
    0.6281    2.5020    1.1611 H   0  0  0  0  0  0  0  0  0  0  0  0
    2.1084    1.9126    1.8997 H   0  0  0  0  0  0  0  0  0  0  0  0
    1.7611   -0.3255    0.7719 H   0  0  0  0  0  0  0  0  0  0  0  0
    0.6555    0.1413    2.0463 H   0  0  0  0  0  0  0  0  0  0  0  0
   -0.9849    0.9239    0.2268 H   0  0  0  0  0  0  0  0  0  0  0  0
   -0.6127    0.0713   -1.9443 H   0  0  0  0  0  0  0  0  0  0  0  0
    0.8031   -0.6196   -1.5099 H   0  0  0  0  0  0  0  0  0  0  0  0
   -2.8849   -0.5399   -0.5672 H   0  0  0  0  0  0  0  0  0  0  0  0
   -1.9067   -1.6084   -1.5915 H   0  0  0  0  0  0  0  0  0  0  0  0
   -2.8563   -2.2840   -0.2757 H   0  0  0  0  0  0  0  0  0  0  0  0
   -2.3001   -2.0491    2.0165 H   0  0  0  0  0  0  0  0  0  0  0  0
   -0.8637   -1.2295    2.6043 H   0  0  0  0  0  0  0  0  0  0  0  0
   -2.2295   -0.2829    1.9854 H   0  0  0  0  0  0  0  0  0  0  0  0
    0.6936   -2.4355    1.0044 H   0  0  0  0  0  0  0  0  0  0  0  0
   -0.7055   -3.3972    0.5302 H   0  0  0  0  0  0  0  0  0  0  0  0
    0.2681   -2.6044   -0.7069 H   0  0  0  0  0  0  0  0  0  0  0  0
  1  2  1  0
  2  3  1  0
  3  4  1  0
  4  5  1  0
  5  6  1  0
  5  7  1  0
  7  8  1  0
  7  9  1  0
  7 10  1  0
  1 11  1  0
  1 12  1  0
  1 13  1  0
  2 14  1  0
  2 15  1  0
  3 16  1  0
  3 17  1  0
  4 18  1  0
  4 19  1  0
  5 20  1  6
  6 21  1  0
  6 22  1  0
  8 23  1  0
  8 24  1  0
  8 25  1  0
  9 26  1  0
  9 27  1  0
  9 28  1  0
 10 29  1  0
 10 30  1  0
 10 31  1  0
M  END
