
     RDKit          3D

 28 28  0  0  0  0  0  0  0  0999 V2000
   -3.0577   -1.0075   -0.6900 C   0  0  0  0  0  0  0  0  0  0  0  0
   -1.7363   -1.2710    0.0332 C   0  0  2  0  0  0  0  0  0  0  0  0
   -1.4976   -2.7145    0.0355 N   0  0  0  0  0  0  0  0  0  0  0  0
   -1.7825   -0.6803    1.4555 C   0  0  0  0  0  0  0  0  0  0  0  0
   -0.4848   -0.8109    2.2571 C   0  0  0  0  0  0  0  0  0  0  0  0
    0.6223   -0.0588    1.6527 C   0  0  0  0  0  0  0  0  0  0  0  0
    1.5264    0.5520    1.1503 C   0  0  0  0  0  0  0  0  0  0  0  0
    2.5988    1.2758    0.5406 C   0  0  0  0  0  0  0  0  0  0  0  0
    2.8742    1.1036   -0.8180 C   0  0  0  0  0  0  0  0  0  0  0  0
    3.9206    1.8103   -1.4140 C   0  0  0  0  0  0  0  0  0  0  0  0
    4.6918    2.6888   -0.6529 C   0  0  0  0  0  0  0  0  0  0  0  0
    4.4182    2.8620    0.7039 C   0  0  0  0  0  0  0  0  0  0  0  0
    3.3719    2.1559    1.3012 C   0  0  0  0  0  0  0  0  0  0  0  0
   -3.0325   -1.4037   -1.7115 H   0  0  0  0  0  0  0  0  0  0  0  0
   -3.2525    0.0683   -0.7586 H   0  0  0  0  0  0  0  0  0  0  0  0
   -3.9032   -1.4702   -0.1683 H   0  0  0  0  0  0  0  0  0  0  0  0
   -0.9379   -0.7912   -0.5438 H   0  0  0  0  0  0  0  0  0  0  0  0
   -0.5736   -2.9166    0.4138 H   0  0  0  0  0  0  0  0  0  0  0  0
   -2.1716   -3.1829    0.6390 H   0  0  0  0  0  0  0  0  0  0  0  0
   -2.5877   -1.1647    2.0241 H   0  0  0  0  0  0  0  0  0  0  0  0
   -2.0517    0.3826    1.3885 H   0  0  0  0  0  0  0  0  0  0  0  0
   -0.6615   -0.4270    3.2692 H   0  0  0  0  0  0  0  0  0  0  0  0
   -0.2059   -1.8637    2.3726 H   0  0  0  0  0  0  0  0  0  0  0  0
    2.2773    0.4204   -1.4175 H   0  0  0  0  0  0  0  0  0  0  0  0
    4.1336    1.6750   -2.4712 H   0  0  0  0  0  0  0  0  0  0  0  0
    5.5063    3.2386   -1.1175 H   0  0  0  0  0  0  0  0  0  0  0  0
    5.0191    3.5465    1.2969 H   0  0  0  0  0  0  0  0  0  0  0  0
    3.1645    2.2959    2.3591 H   0  0  0  0  0  0  0  0  0  0  0  0
  1  2  1  0
  2  3  1  0
  2  4  1  0
  4  5  1  0
  5  6  1  0
  6  7  3  0
  7  8  1  0
  8  9  2  0
  9 10  1  0
 10 11  2  0
 11 12  1  0
 12 13  2  0
 13  8  1  0
  1 14  1  0
  1 15  1  0
  1 16  1  0
  2 17  1  6
  3 18  1  0
  3 19  1  0
  4 20  1  0
  4 21  1  0
  5 22  1  0
  5 23  1  0
  9 24  1  0
 10 25  1  0
 11 26  1  0
 12 27  1  0
 13 28  1  0
M  END
