
     RDKit          3D

 29 29  0  0  0  0  0  0  0  0999 V2000
    2.0096   -1.0919    0.7612 C   0  0  0  0  0  0  0  0  0  0  0  0
    1.8439    0.3588    0.2956 C   0  0  0  0  0  0  0  0  0  0  0  0
    2.9536    1.2244    0.9085 C   0  0  0  0  0  0  0  0  0  0  0  0
    0.4314    0.9578    0.5743 C   0  0  2  0  0  0  0  0  0  0  0  0
    0.1899    1.0330    2.0336 N   0  0  0  0  0  0  0  0  0  0  0  0
   -0.7082    0.2014   -0.1775 C   0  0  0  0  0  0  0  0  0  0  0  0
   -2.4477    1.0710    0.2027 Br  0  0  0  0  0  0  0  0  0  0  0  0
   -0.5762    0.1218   -1.6829 C   0  0  0  0  0  0  0  0  0  0  0  0
   -0.6898   -1.1227   -2.3242 C   0  0  0  0  0  0  0  0  0  0  0  0
   -0.5622   -1.2265   -3.7107 C   0  0  0  0  0  0  0  0  0  0  0  0
   -0.3226   -0.0888   -4.4769 C   0  0  0  0  0  0  0  0  0  0  0  0
   -0.2136    1.1540   -3.8584 C   0  0  0  0  0  0  0  0  0  0  0  0
   -0.3405    1.2602   -2.4719 C   0  0  0  0  0  0  0  0  0  0  0  0
    1.9041   -1.1871    1.8464 H   0  0  0  0  0  0  0  0  0  0  0  0
    3.0041   -1.4665    0.4940 H   0  0  0  0  0  0  0  0  0  0  0  0
    1.2787   -1.7524    0.2863 H   0  0  0  0  0  0  0  0  0  0  0  0
    2.0113    0.3719   -0.7888 H   0  0  0  0  0  0  0  0  0  0  0  0
    3.9395    0.8598    0.5997 H   0  0  0  0  0  0  0  0  0  0  0  0
    2.9239    1.2121    2.0030 H   0  0  0  0  0  0  0  0  0  0  0  0
    2.8658    2.2636    0.5744 H   0  0  0  0  0  0  0  0  0  0  0  0
    0.4474    1.9980    0.2234 H   0  0  0  0  0  0  0  0  0  0  0  0
    0.1046    0.0949    2.4231 H   0  0  0  0  0  0  0  0  0  0  0  0
   -0.7187    1.4756    2.1901 H   0  0  0  0  0  0  0  0  0  0  0  0
   -0.8353   -0.7999    0.2503 H   0  0  0  0  0  0  0  0  0  0  0  0
   -0.8802   -2.0260   -1.7481 H   0  0  0  0  0  0  0  0  0  0  0  0
   -0.6526   -2.1963   -4.1934 H   0  0  0  0  0  0  0  0  0  0  0  0
   -0.2258   -0.1696   -5.5564 H   0  0  0  0  0  0  0  0  0  0  0  0
   -0.0337    2.0440   -4.4563 H   0  0  0  0  0  0  0  0  0  0  0  0
   -0.2616    2.2454   -2.0170 H   0  0  0  0  0  0  0  0  0  0  0  0
  1  2  1  0
  2  3  1  0
  2  4  1  0
  4  5  1  0
  4  6  1  0
  6  7  1  0
  6  8  1  0
  8  9  2  0
  9 10  1  0
 10 11  2  0
 11 12  1  0
 12 13  2  0
 13  8  1  0
  1 14  1  0
  1 15  1  0
  1 16  1  0
  2 17  1  0
  3 18  1  0
  3 19  1  0
  3 20  1  0
  4 21  1  6
  5 22  1  0
  5 23  1  0
  6 24  1  0
  9 25  1  0
 10 26  1  0
 11 27  1  0
 12 28  1  0
 13 29  1  0
M  END
