
     RDKit          3D

 25 24  0  0  0  0  0  0  0  0999 V2000
   -1.5130    1.5146    0.0391 C   0  0  0  0  0  0  0  0  0  0  0  0
   -0.7052    0.6744   -0.9436 C   0  0  0  0  0  0  0  0  0  0  0  0
   -0.9219   -0.8483   -0.7541 C   0  0  1  0  0  0  0  0  0  0  0  0
   -1.0857   -1.4881   -2.1457 C   0  0  0  0  0  0  0  0  0  0  0  0
    0.2297   -1.5324    0.0534 C   0  0  2  0  0  0  0  0  0  0  0  0
   -0.0569   -2.9631    0.2301 N   0  0  0  0  0  0  0  0  0  0  0  0
    0.4635   -0.8839    1.4348 C   0  0  0  0  0  0  0  0  0  0  0  0
    1.6067   -1.5002    2.2359 C   0  0  0  0  0  0  0  0  0  0  0  0
   -1.3175    2.5787   -0.1286 H   0  0  0  0  0  0  0  0  0  0  0  0
   -2.5860    1.3457   -0.0996 H   0  0  0  0  0  0  0  0  0  0  0  0
   -1.2666    1.2881    1.0788 H   0  0  0  0  0  0  0  0  0  0  0  0
    0.3582    0.9282   -0.8651 H   0  0  0  0  0  0  0  0  0  0  0  0
   -1.0124    0.9839   -1.9505 H   0  0  0  0  0  0  0  0  0  0  0  0
   -1.8675   -1.0068   -0.2172 H   0  0  0  0  0  0  0  0  0  0  0  0
   -0.1519   -1.4376   -2.7158 H   0  0  0  0  0  0  0  0  0  0  0  0
   -1.3938   -2.5356   -2.0790 H   0  0  0  0  0  0  0  0  0  0  0  0
   -1.8635   -0.9734   -2.7211 H   0  0  0  0  0  0  0  0  0  0  0  0
    1.1580   -1.4461   -0.5263 H   0  0  0  0  0  0  0  0  0  0  0  0
   -0.1083   -3.4228   -0.6772 H   0  0  0  0  0  0  0  0  0  0  0  0
    0.7168   -3.4160    0.7139 H   0  0  0  0  0  0  0  0  0  0  0  0
   -0.4549   -0.9263    2.0333 H   0  0  0  0  0  0  0  0  0  0  0  0
    0.7128    0.1741    1.3035 H   0  0  0  0  0  0  0  0  0  0  0  0
    1.3672   -2.5131    2.5723 H   0  0  0  0  0  0  0  0  0  0  0  0
    2.5269   -1.5353    1.6444 H   0  0  0  0  0  0  0  0  0  0  0  0
    1.8021   -0.8984    3.1296 H   0  0  0  0  0  0  0  0  0  0  0  0
  1  2  1  0
  2  3  1  0
  3  4  1  0
  3  5  1  0
  5  6  1  0
  5  7  1  0
  7  8  1  0
  1  9  1  0
  1 10  1  0
  1 11  1  0
  2 12  1  0
  2 13  1  0
  3 14  1  1
  4 15  1  0
  4 16  1  0
  4 17  1  0
  5 18  1  6
  6 19  1  0
  6 20  1  0
  7 21  1  0
  7 22  1  0
  8 23  1  0
  8 24  1  0
  8 25  1  0
M  END
