
     RDKit          3D

 35 35  0  0  0  0  0  0  0  0999 V2000
    0.0643    0.6783    1.4049 N   0  0  0  0  0  0  0  0  0  0  0  0
    1.2976    0.6972    0.5945 C   0  0  1  0  0  0  0  0  0  0  0  0
    1.3783   -0.4485   -0.4522 C   0  0  0  0  0  0  0  0  0  0  0  0
    0.1221   -1.0697   -1.1087 C   0  0  0  0  0  0  0  0  0  0  0  0
   -0.8697   -0.0786   -1.7161 C   0  0  0  0  0  0  0  0  0  0  0  0
   -1.9531   -0.7822   -2.5412 C   0  0  0  0  0  0  0  0  0  0  0  0
   -2.3391   -2.1615   -2.0070 C   0  0  0  0  0  0  0  0  0  0  0  0
   -2.0625   -2.2930   -0.5170 C   0  0  0  0  0  0  0  0  0  0  0  0
   -0.5774   -2.1048   -0.2013 C   0  0  0  0  0  0  0  0  0  0  0  0
    1.5897    2.1279   -0.0087 C   0  0  1  0  0  0  0  0  0  0  0  0
    0.4408    2.6471   -0.7446 N   0  0  0  0  0  0  0  0  0  0  0  0
    2.0407    3.0758    1.0913 C   0  0  0  0  0  0  0  0  0  0  0  0
    1.4031    4.1461    1.5899 C   0  0  0  0  0  0  0  0  0  0  0  0
    0.0556   -0.1631    1.9779 H   0  0  0  0  0  0  0  0  0  0  0  0
    0.0936    1.4610    2.0589 H   0  0  0  0  0  0  0  0  0  0  0  0
    2.1213    0.4999    1.2965 H   0  0  0  0  0  0  0  0  0  0  0  0
    2.0404   -0.1187   -1.2644 H   0  0  0  0  0  0  0  0  0  0  0  0
    1.9195   -1.2787    0.0253 H   0  0  0  0  0  0  0  0  0  0  0  0
    0.5151   -1.6518   -1.9575 H   0  0  0  0  0  0  0  0  0  0  0  0
   -0.3513    0.6362   -2.3640 H   0  0  0  0  0  0  0  0  0  0  0  0
   -1.3634    0.4933   -0.9234 H   0  0  0  0  0  0  0  0  0  0  0  0
   -2.8395   -0.1370   -2.5761 H   0  0  0  0  0  0  0  0  0  0  0  0
   -1.6161   -0.8898   -3.5796 H   0  0  0  0  0  0  0  0  0  0  0  0
   -1.7715   -2.9305   -2.5462 H   0  0  0  0  0  0  0  0  0  0  0  0
   -3.3976   -2.3539   -2.2159 H   0  0  0  0  0  0  0  0  0  0  0  0
   -2.6500   -1.5442    0.0290 H   0  0  0  0  0  0  0  0  0  0  0  0
   -2.3921   -3.2739   -0.1561 H   0  0  0  0  0  0  0  0  0  0  0  0
   -0.4768   -1.8633    0.8596 H   0  0  0  0  0  0  0  0  0  0  0  0
   -0.0637   -3.0674   -0.3276 H   0  0  0  0  0  0  0  0  0  0  0  0
    2.4263    2.0524   -0.7138 H   0  0  0  0  0  0  0  0  0  0  0  0
    0.5278    3.6501   -0.8722 H   0  0  0  0  0  0  0  0  0  0  0  0
   -0.3893    2.4645   -0.1788 H   0  0  0  0  0  0  0  0  0  0  0  0
    3.0173    2.8366    1.5124 H   0  0  0  0  0  0  0  0  0  0  0  0
    1.8568    4.7384    2.3794 H   0  0  0  0  0  0  0  0  0  0  0  0
    0.4235    4.4581    1.2444 H   0  0  0  0  0  0  0  0  0  0  0  0
  1  2  1  0
  2  3  1  0
  3  4  1  0
  4  5  1  0
  5  6  1  0
  6  7  1  0
  7  8  1  0
  8  9  1  0
  2 10  1  0
 10 11  1  0
 10 12  1  0
 12 13  2  3
  9  4  1  0
  1 14  1  0
  1 15  1  0
  2 16  1  1
  3 17  1  0
  3 18  1  0
  4 19  1  0
  5 20  1  0
  5 21  1  0
  6 22  1  0
  6 23  1  0
  7 24  1  0
  7 25  1  0
  8 26  1  0
  8 27  1  0
  9 28  1  0
  9 29  1  0
 10 30  1  6
 11 31  1  0
 11 32  1  0
 12 33  1  0
 13 34  1  0
 13 35  1  0
M  END
