
     RDKit          3D

 34 34  0  0  0  0  0  0  0  0999 V2000
   -1.9271    3.6003   -1.5090 C   0  0  0  0  0  0  0  0  0  0  0  0
   -0.6980    3.4074   -0.6105 C   0  0  0  0  0  0  0  0  0  0  0  0
    0.3030    4.5372   -0.8859 C   0  0  0  0  0  0  0  0  0  0  0  0
   -0.0169    2.0164   -0.7410 C   0  0  2  0  0  0  0  0  0  0  0  0
    0.1960    1.5944   -2.1370 N   0  0  0  0  0  0  0  0  0  0  0  0
   -0.7963    0.9146    0.0082 C   0  0  0  0  0  0  0  0  0  0  0  0
   -2.0171    0.9644    0.1650 O   0  0  0  0  0  0  0  0  0  0  0  0
   -0.0509   -0.2557    0.5701 C   0  0  0  0  0  0  0  0  0  0  0  0
    1.2337   -0.6026    0.1483 C   0  0  0  0  0  0  0  0  0  0  0  0
    1.8856   -1.7016    0.7145 C   0  0  0  0  0  0  0  0  0  0  0  0
    1.2674   -2.4750    1.7085 C   0  0  0  0  0  0  0  0  0  0  0  0
    2.0018   -3.6531    2.2884 C   0  0  0  0  0  0  0  0  0  0  0  0
   -0.0339   -2.1407    2.1301 C   0  0  0  0  0  0  0  0  0  0  0  0
   -0.7491   -2.9418    3.1838 C   0  0  0  0  0  0  0  0  0  0  0  0
   -0.6791   -1.0331    1.5538 C   0  0  0  0  0  0  0  0  0  0  0  0
   -2.6725    2.8154   -1.3582 H   0  0  0  0  0  0  0  0  0  0  0  0
   -1.6562    3.6121   -2.5700 H   0  0  0  0  0  0  0  0  0  0  0  0
   -2.4126    4.5571   -1.2863 H   0  0  0  0  0  0  0  0  0  0  0  0
   -1.0352    3.5204    0.4289 H   0  0  0  0  0  0  0  0  0  0  0  0
    0.6645    4.5166   -1.9190 H   0  0  0  0  0  0  0  0  0  0  0  0
   -0.1609    5.5144   -0.7131 H   0  0  0  0  0  0  0  0  0  0  0  0
    1.1691    4.4614   -0.2201 H   0  0  0  0  0  0  0  0  0  0  0  0
    0.9625    2.0983   -0.2538 H   0  0  0  0  0  0  0  0  0  0  0  0
   -0.7161    1.4048   -2.5591 H   0  0  0  0  0  0  0  0  0  0  0  0
    0.5874    2.3688   -2.6712 H   0  0  0  0  0  0  0  0  0  0  0  0
    1.7437   -0.0486   -0.6348 H   0  0  0  0  0  0  0  0  0  0  0  0
    2.8848   -1.9548    0.3649 H   0  0  0  0  0  0  0  0  0  0  0  0
    2.0986   -3.5459    3.3734 H   0  0  0  0  0  0  0  0  0  0  0  0
    1.4703   -4.5818    2.0582 H   0  0  0  0  0  0  0  0  0  0  0  0
    3.0131   -3.7387    1.8767 H   0  0  0  0  0  0  0  0  0  0  0  0
   -0.8494   -3.9846    2.8666 H   0  0  0  0  0  0  0  0  0  0  0  0
   -0.2015   -2.8981    4.1304 H   0  0  0  0  0  0  0  0  0  0  0  0
   -1.7576   -2.5562    3.3675 H   0  0  0  0  0  0  0  0  0  0  0  0
   -1.6865   -0.7703    1.8754 H   0  0  0  0  0  0  0  0  0  0  0  0
  1  2  1  0
  2  3  1  0
  2  4  1  0
  4  5  1  0
  4  6  1  0
  6  7  2  0
  6  8  1  0
  8  9  2  0
  9 10  1  0
 10 11  2  0
 11 12  1  0
 11 13  1  0
 13 14  1  0
 13 15  2  0
 15  8  1  0
  1 16  1  0
  1 17  1  0
  1 18  1  0
  2 19  1  0
  3 20  1  0
  3 21  1  0
  3 22  1  0
  4 23  1  1
  5 24  1  0
  5 25  1  0
  9 26  1  0
 10 27  1  0
 12 28  1  0
 12 29  1  0
 12 30  1  0
 14 31  1  0
 14 32  1  0
 14 33  1  0
 15 34  1  0
M  END
