
     RDKit          3D

 37 37  0  0  0  0  0  0  0  0999 V2000
    0.0175   -1.3644    3.1856 C   0  0  0  0  0  0  0  0  0  0  0  0
    0.5923   -0.3126    2.2306 C   0  0  0  0  0  0  0  0  0  0  0  0
    1.6118    0.5550    2.9790 C   0  0  0  0  0  0  0  0  0  0  0  0
   -0.4818    0.5552    1.5284 C   0  0  2  0  0  0  0  0  0  0  0  0
   -1.4114    1.2302    2.4535 N   0  0  0  0  0  0  0  0  0  0  0  0
   -1.3160   -0.2805    0.5359 C   0  0  0  0  0  0  0  0  0  0  0  0
   -2.2484   -1.0043    0.8832 O   0  0  0  0  0  0  0  0  0  0  0  0
   -0.9371   -0.2189   -0.8990 C   0  0  0  0  0  0  0  0  0  0  0  0
   -0.4041   -1.3679   -1.5188 C   0  0  0  0  0  0  0  0  0  0  0  0
   -0.2794   -2.6829   -0.7988 C   0  0  0  0  0  0  0  0  0  0  0  0
   -0.0168   -1.2906   -2.8656 C   0  0  0  0  0  0  0  0  0  0  0  0
   -0.1445   -0.0991   -3.5880 C   0  0  0  0  0  0  0  0  0  0  0  0
    0.2529   -0.0430   -5.0343 C   0  0  0  0  0  0  0  0  0  0  0  0
   -0.7177    1.0171   -2.9689 C   0  0  0  0  0  0  0  0  0  0  0  0
   -1.1385    0.9695   -1.6304 C   0  0  0  0  0  0  0  0  0  0  0  0
   -1.7847    2.1920   -1.0364 C   0  0  0  0  0  0  0  0  0  0  0  0
   -0.5303   -0.9053    4.0148 H   0  0  0  0  0  0  0  0  0  0  0  0
    0.8231   -1.9688    3.6175 H   0  0  0  0  0  0  0  0  0  0  0  0
   -0.6575   -2.0510    2.6670 H   0  0  0  0  0  0  0  0  0  0  0  0
    1.1483   -0.8509    1.4526 H   0  0  0  0  0  0  0  0  0  0  0  0
    2.4300   -0.0622    3.3661 H   0  0  0  0  0  0  0  0  0  0  0  0
    2.0508    1.3039    2.3115 H   0  0  0  0  0  0  0  0  0  0  0  0
    1.1606    1.0768    3.8288 H   0  0  0  0  0  0  0  0  0  0  0  0
    0.0375    1.3410    0.9697 H   0  0  0  0  0  0  0  0  0  0  0  0
   -2.1165    0.5438    2.7405 H   0  0  0  0  0  0  0  0  0  0  0  0
   -0.9274    1.5083    3.3034 H   0  0  0  0  0  0  0  0  0  0  0  0
   -1.2713   -3.0984   -0.5957 H   0  0  0  0  0  0  0  0  0  0  0  0
    0.2681   -2.5666    0.1399 H   0  0  0  0  0  0  0  0  0  0  0  0
    0.2708   -3.4160   -1.3988 H   0  0  0  0  0  0  0  0  0  0  0  0
    0.3867   -2.1722   -3.3620 H   0  0  0  0  0  0  0  0  0  0  0  0
    1.0898   -0.7199   -5.2358 H   0  0  0  0  0  0  0  0  0  0  0  0
   -0.5937   -0.3283   -5.6663 H   0  0  0  0  0  0  0  0  0  0  0  0
    0.5780    0.9655   -5.3111 H   0  0  0  0  0  0  0  0  0  0  0  0
   -0.8543    1.9327   -3.5432 H   0  0  0  0  0  0  0  0  0  0  0  0
   -2.2365    2.8131   -1.8179 H   0  0  0  0  0  0  0  0  0  0  0  0
   -1.0422    2.7972   -0.5085 H   0  0  0  0  0  0  0  0  0  0  0  0
   -2.5935    1.9211   -0.3509 H   0  0  0  0  0  0  0  0  0  0  0  0
  1  2  1  0
  2  3  1  0
  2  4  1  0
  4  5  1  0
  4  6  1  0
  6  7  2  0
  6  8  1  0
  8  9  2  0
  9 10  1  0
  9 11  1  0
 11 12  2  0
 12 13  1  0
 12 14  1  0
 14 15  2  0
 15 16  1  0
 15  8  1  0
  1 17  1  0
  1 18  1  0
  1 19  1  0
  2 20  1  0
  3 21  1  0
  3 22  1  0
  3 23  1  0
  4 24  1  6
  5 25  1  0
  5 26  1  0
 10 27  1  0
 10 28  1  0
 10 29  1  0
 11 30  1  0
 13 31  1  0
 13 32  1  0
 13 33  1  0
 14 34  1  0
 16 35  1  0
 16 36  1  0
 16 37  1  0
M  END
