
     RDKit          3D

 35 36  0  0  0  0  0  0  0  0999 V2000
    0.4162    0.5002    5.1047 C   0  0  0  0  0  0  0  0  0  0  0  0
    0.2438   -0.1580    3.7674 C   0  0  0  0  0  0  0  0  0  0  0  0
    1.3171   -0.8226    3.1620 C   0  0  0  0  0  0  0  0  0  0  0  0
    1.1645   -1.4110    1.9050 C   0  0  0  0  0  0  0  0  0  0  0  0
   -0.0574   -1.3190    1.2298 C   0  0  0  0  0  0  0  0  0  0  0  0
   -1.1342   -0.6630    1.8307 C   0  0  0  0  0  0  0  0  0  0  0  0
   -0.9792   -0.0760    3.0895 C   0  0  0  0  0  0  0  0  0  0  0  0
   -0.1673   -1.9551   -0.1091 C   0  0  0  0  0  0  0  0  0  0  0  0
    0.3624   -3.0570   -0.2755 O   0  0  0  0  0  0  0  0  0  0  0  0
   -0.9592   -1.2829   -1.2439 C   0  0  1  0  0  0  0  0  0  0  0  0
   -2.3883   -1.6453   -1.1147 N   0  0  0  0  0  0  0  0  0  0  0  0
   -0.7703    0.2396   -1.3730 C   0  0  0  0  0  0  0  0  0  0  0  0
    0.6669    0.6643   -1.5741 C   0  0  0  0  0  0  0  0  0  0  0  0
    1.3298    1.4117   -0.5906 C   0  0  0  0  0  0  0  0  0  0  0  0
    2.6598    1.7958   -0.7680 C   0  0  0  0  0  0  0  0  0  0  0  0
    3.3390    1.4429   -1.9317 C   0  0  0  0  0  0  0  0  0  0  0  0
    2.6882    0.7079   -2.9202 C   0  0  0  0  0  0  0  0  0  0  0  0
    1.3583    0.3218   -2.7444 C   0  0  0  0  0  0  0  0  0  0  0  0
    1.1496   -0.0386    5.7138 H   0  0  0  0  0  0  0  0  0  0  0  0
   -0.5265    0.5061    5.6618 H   0  0  0  0  0  0  0  0  0  0  0  0
    0.7557    1.5321    4.9722 H   0  0  0  0  0  0  0  0  0  0  0  0
    2.2782   -0.8921    3.6670 H   0  0  0  0  0  0  0  0  0  0  0  0
    2.0029   -1.9332    1.4481 H   0  0  0  0  0  0  0  0  0  0  0  0
   -2.1028   -0.6101    1.3406 H   0  0  0  0  0  0  0  0  0  0  0  0
   -1.8243    0.4383    3.5428 H   0  0  0  0  0  0  0  0  0  0  0  0
   -0.5948   -1.7461   -2.1708 H   0  0  0  0  0  0  0  0  0  0  0  0
   -2.8776   -1.3636   -1.9642 H   0  0  0  0  0  0  0  0  0  0  0  0
   -2.4484   -2.6672   -1.0926 H   0  0  0  0  0  0  0  0  0  0  0  0
   -1.1934    0.7657   -0.5096 H   0  0  0  0  0  0  0  0  0  0  0  0
   -1.3445    0.6043   -2.2363 H   0  0  0  0  0  0  0  0  0  0  0  0
    0.8187    1.6968    0.3269 H   0  0  0  0  0  0  0  0  0  0  0  0
    3.1656    2.3700    0.0038 H   0  0  0  0  0  0  0  0  0  0  0  0
    4.3749    1.7414   -2.0690 H   0  0  0  0  0  0  0  0  0  0  0  0
    3.2172    0.4338   -3.8293 H   0  0  0  0  0  0  0  0  0  0  0  0
    0.8684   -0.2486   -3.5303 H   0  0  0  0  0  0  0  0  0  0  0  0
  1  2  1  0
  2  3  2  0
  3  4  1  0
  4  5  2  0
  5  6  1  0
  6  7  2  0
  5  8  1  0
  8  9  2  0
  8 10  1  0
 10 11  1  0
 10 12  1  0
 12 13  1  0
 13 14  2  0
 14 15  1  0
 15 16  2  0
 16 17  1  0
 17 18  2  0
  7  2  1  0
 18 13  1  0
  1 19  1  0
  1 20  1  0
  1 21  1  0
  3 22  1  0
  4 23  1  0
  6 24  1  0
  7 25  1  0
 10 26  1  6
 11 27  1  0
 11 28  1  0
 12 29  1  0
 12 30  1  0
 14 31  1  0
 15 32  1  0
 16 33  1  0
 17 34  1  0
 18 35  1  0
M  END
