
     RDKit          3D

 32 32  0  0  0  0  0  0  0  0999 V2000
    0.8946    0.5264    0.6995 C   0  0  1  0  0  0  0  0  0  0  0  0
    2.0707    1.3339    1.0972 N   0  0  0  0  0  0  0  0  0  0  0  0
    1.1865   -0.9904    0.8453 C   0  0  0  0  0  0  0  0  0  0  0  0
    2.3685   -1.4673    0.0256 C   0  0  0  0  0  0  0  0  0  0  0  0
    3.5997   -1.7400    0.6382 C   0  0  0  0  0  0  0  0  0  0  0  0
    4.6900   -2.1634   -0.1228 C   0  0  0  0  0  0  0  0  0  0  0  0
    4.5593   -2.3208   -1.5014 C   0  0  0  0  0  0  0  0  0  0  0  0
    3.3404   -2.0538   -2.1208 C   0  0  0  0  0  0  0  0  0  0  0  0
    2.2480   -1.6294   -1.3606 C   0  0  0  0  0  0  0  0  0  0  0  0
   -0.3024    0.9754    1.5568 C   0  0  0  0  0  0  0  0  0  0  0  0
   -1.8928    0.4241    0.8475 S   0  0  0  0  0  4  0  0  0  0  0  0
   -2.0358   -1.0399    1.1482 O   0  0  0  0  0  0  0  0  0  0  0  0
   -2.9660    1.3177    2.0224 C   0  0  0  0  0  0  0  0  0  0  0  0
   -3.1434    3.0773    1.6193 S   0  0  0  0  0  0  0  0  0  0  0  0
   -4.3738    3.5117    2.8682 C   0  0  0  0  0  0  0  0  0  0  0  0
    0.6908    0.7571   -0.3531 H   0  0  0  0  0  0  0  0  0  0  0  0
    2.4084    1.0178    2.0057 H   0  0  0  0  0  0  0  0  0  0  0  0
    2.8355    1.1224    0.4501 H   0  0  0  0  0  0  0  0  0  0  0  0
    0.3198   -1.5838    0.5334 H   0  0  0  0  0  0  0  0  0  0  0  0
    1.3501   -1.2387    1.9031 H   0  0  0  0  0  0  0  0  0  0  0  0
    3.7172   -1.6283    1.7121 H   0  0  0  0  0  0  0  0  0  0  0  0
    5.6415   -2.3734    0.3592 H   0  0  0  0  0  0  0  0  0  0  0  0
    5.4097   -2.6460   -2.0961 H   0  0  0  0  0  0  0  0  0  0  0  0
    3.2362   -2.1823   -3.1953 H   0  0  0  0  0  0  0  0  0  0  0  0
    1.3007   -1.4291   -1.8590 H   0  0  0  0  0  0  0  0  0  0  0  0
   -0.2249    0.5962    2.5812 H   0  0  0  0  0  0  0  0  0  0  0  0
   -0.3323    2.0690    1.5982 H   0  0  0  0  0  0  0  0  0  0  0  0
   -2.5736    1.1828    3.0347 H   0  0  0  0  0  0  0  0  0  0  0  0
   -3.9506    0.8457    1.9601 H   0  0  0  0  0  0  0  0  0  0  0  0
   -3.9920    3.3150    3.8718 H   0  0  0  0  0  0  0  0  0  0  0  0
   -4.6068    4.5756    2.7899 H   0  0  0  0  0  0  0  0  0  0  0  0
   -5.2932    2.9424    2.7089 H   0  0  0  0  0  0  0  0  0  0  0  0
  1  2  1  0
  1  3  1  0
  3  4  1  0
  4  5  2  0
  5  6  1  0
  6  7  2  0
  7  8  1  0
  8  9  2  0
  1 10  1  0
 11 10  1  1
 11 12  2  0
 11 13  1  0
 13 14  1  0
 14 15  1  0
  9  4  1  0
  1 16  1  6
  2 17  1  0
  2 18  1  0
  3 19  1  0
  3 20  1  0
  5 21  1  0
  6 22  1  0
  7 23  1  0
  8 24  1  0
  9 25  1  0
 10 26  1  0
 10 27  1  0
 13 28  1  0
 13 29  1  0
 15 30  1  0
 15 31  1  0
 15 32  1  0
M  END
