
     RDKit          3D

 13 12  0  0  0  0  0  0  0  0999 V2000
   -0.5183    0.3282    0.5627 C   0  0  2  0  0  0  0  0  0  0  0  0
   -1.3349    0.7737   -0.6510 C   0  0  0  0  0  0  0  0  0  0  0  0
    0.8440   -0.0121    0.1380 N   0  0  0  0  0  0  0  0  0  0  0  0
   -1.2057   -0.7883    1.3752 C   0  0  0  0  0  0  0  0  0  0  0  0
   -1.3105   -2.6801    0.3622 I   0  0  0  0  0  0  0  0  0  0  0  0
   -0.4363    1.1981    1.2265 H   0  0  0  0  0  0  0  0  0  0  0  0
   -2.3537    1.0445   -0.3537 H   0  0  0  0  0  0  0  0  0  0  0  0
   -1.4011   -0.0034   -1.4191 H   0  0  0  0  0  0  0  0  0  0  0  0
   -0.8827    1.6570   -1.1166 H   0  0  0  0  0  0  0  0  0  0  0  0
    1.3909   -0.3181    0.9425 H   0  0  0  0  0  0  0  0  0  0  0  0
    0.8077   -0.8181   -0.4891 H   0  0  0  0  0  0  0  0  0  0  0  0
   -2.2197   -0.4736    1.6483 H   0  0  0  0  0  0  0  0  0  0  0  0
   -0.6591   -0.9366    2.3145 H   0  0  0  0  0  0  0  0  0  0  0  0
  1  2  1  0
  1  3  1  0
  1  4  1  0
  4  5  1  0
  1  6  1  1
  2  7  1  0
  2  8  1  0
  2  9  1  0
  3 10  1  0
  3 11  1  0
  4 12  1  0
  4 13  1  0
M  END
