
     RDKit          3D

 17 16  0  0  0  0  0  0  0  0999 V2000
    1.0464    0.5226    0.4697 C   0  0  2  0  0  0  0  0  0  0  0  0
    1.3092    0.6293    1.9712 C   0  0  0  0  0  0  0  0  0  0  0  0
    1.9550    1.4416   -0.2276 N   0  0  0  0  0  0  0  0  0  0  0  0
   -0.4171    0.8576    0.1568 C   0  0  0  0  0  0  0  0  0  0  0  0
   -0.8214    0.4771   -1.2517 C   0  0  0  0  0  0  0  0  0  0  0  0
   -2.1086    0.8057   -1.5723 N   0  0  0  0  0  0  0  0  0  0  0  0
   -0.1007   -0.0926   -2.0622 O   0  0  0  0  0  0  0  0  0  0  0  0
    1.2733   -0.5017    0.1502 H   0  0  0  0  0  0  0  0  0  0  0  0
    1.1071    1.6397    2.3445 H   0  0  0  0  0  0  0  0  0  0  0  0
    2.3502    0.3826    2.2080 H   0  0  0  0  0  0  0  0  0  0  0  0
    0.6715   -0.0679    2.5256 H   0  0  0  0  0  0  0  0  0  0  0  0
    2.9197    1.1761   -0.0284 H   0  0  0  0  0  0  0  0  0  0  0  0
    1.8417    1.2927   -1.2354 H   0  0  0  0  0  0  0  0  0  0  0  0
   -0.6100    1.9277    0.3038 H   0  0  0  0  0  0  0  0  0  0  0  0
   -1.0754    0.3051    0.8392 H   0  0  0  0  0  0  0  0  0  0  0  0
   -2.3853    0.6518   -2.5337 H   0  0  0  0  0  0  0  0  0  0  0  0
   -2.6256    1.4901   -1.0378 H   0  0  0  0  0  0  0  0  0  0  0  0
  1  2  1  0
  1  3  1  0
  1  4  1  0
  4  5  1  0
  5  6  1  0
  5  7  2  0
  1  8  1  6
  2  9  1  0
  2 10  1  0
  2 11  1  0
  3 12  1  0
  3 13  1  0
  4 14  1  0
  4 15  1  0
  6 16  1  0
  6 17  1  0
M  END
