
     RDKit          3D

 28 28  0  0  0  0  0  0  0  0999 V2000
   -1.7361    2.0373    2.5795 C   0  0  0  0  0  0  0  0  0  0  0  0
   -0.5983    1.0385    2.7796 C   0  0  0  0  0  0  0  0  0  0  0  0
   -0.4234   -0.0133    1.6466 C   0  0  1  0  0  0  0  0  0  0  0  0
    0.6976   -0.9784    2.0652 C   0  0  0  0  0  0  0  0  0  0  0  0
   -1.6814   -0.7719    1.4920 N   0  0  0  0  0  0  0  0  0  0  0  0
    0.0024    0.6835    0.3220 C   0  0  0  0  0  0  0  0  0  0  0  0
    0.5590    1.7871    0.3469 O   0  0  0  0  0  0  0  0  0  0  0  0
   -0.1909    0.0503   -1.0281 C   0  0  0  0  0  0  0  0  0  0  0  0
   -0.4725   -1.3058   -1.2258 C   0  0  0  0  0  0  0  0  0  0  0  0
   -0.6272   -1.8198   -2.5181 C   0  0  0  0  0  0  0  0  0  0  0  0
   -0.4969   -0.9861   -3.6264 C   0  0  0  0  0  0  0  0  0  0  0  0
   -0.2096    0.3636   -3.4466 C   0  0  0  0  0  0  0  0  0  0  0  0
   -0.0557    0.8773   -2.1565 C   0  0  0  0  0  0  0  0  0  0  0  0
   -1.6489    2.5704    1.6287 H   0  0  0  0  0  0  0  0  0  0  0  0
   -2.7131    1.5462    2.6132 H   0  0  0  0  0  0  0  0  0  0  0  0
   -1.7190    2.7824    3.3819 H   0  0  0  0  0  0  0  0  0  0  0  0
    0.3339    1.6057    2.9012 H   0  0  0  0  0  0  0  0  0  0  0  0
   -0.7658    0.5258    3.7366 H   0  0  0  0  0  0  0  0  0  0  0  0
    1.6452   -0.4418    2.1942 H   0  0  0  0  0  0  0  0  0  0  0  0
    0.4654   -1.4755    3.0144 H   0  0  0  0  0  0  0  0  0  0  0  0
    0.8777   -1.7599    1.3206 H   0  0  0  0  0  0  0  0  0  0  0  0
   -1.9724   -1.1303    2.4019 H   0  0  0  0  0  0  0  0  0  0  0  0
   -2.4256   -0.1406    1.1926 H   0  0  0  0  0  0  0  0  0  0  0  0
   -0.5785   -1.9939   -0.3936 H   0  0  0  0  0  0  0  0  0  0  0  0
   -0.8492   -2.8754   -2.6564 H   0  0  0  0  0  0  0  0  0  0  0  0
   -0.6166   -1.3891   -4.6288 H   0  0  0  0  0  0  0  0  0  0  0  0
   -0.1022    1.0188   -4.3073 H   0  0  0  0  0  0  0  0  0  0  0  0
    0.1728    1.9352   -2.0365 H   0  0  0  0  0  0  0  0  0  0  0  0
  1  2  1  0
  2  3  1  0
  3  4  1  0
  3  5  1  6
  3  6  1  0
  6  7  2  0
  6  8  1  0
  8  9  2  0
  9 10  1  0
 10 11  2  0
 11 12  1  0
 12 13  2  0
 13  8  1  0
  1 14  1  0
  1 15  1  0
  1 16  1  0
  2 17  1  0
  2 18  1  0
  4 19  1  0
  4 20  1  0
  4 21  1  0
  5 22  1  0
  5 23  1  0
  9 24  1  0
 10 25  1  0
 11 26  1  0
 12 27  1  0
 13 28  1  0
M  END
