
     RDKit          3D

 19 18  0  0  0  0  0  0  0  0999 V2000
    0.4450   -0.1007    2.1341 C   0  0  0  0  0  0  0  0  0  0  0  0
    0.1790    0.1260    0.6449 C   0  0  2  0  0  0  0  0  0  0  0  0
   -0.5976   -1.0072    0.0919 N   0  0  0  0  0  0  0  0  0  0  0  0
    1.4897    0.3937   -0.1792 C   0  0  2  0  0  0  0  0  0  0  0  0
    1.1198    0.6392   -1.5778 N   0  0  0  0  0  0  0  0  0  0  0  0
    2.5158   -0.7146   -0.0360 C   0  0  0  0  0  0  0  0  0  0  0  0
    2.8677   -1.6447   -0.9368 C   0  0  0  0  0  0  0  0  0  0  0  0
    0.9838   -1.0359    2.3199 H   0  0  0  0  0  0  0  0  0  0  0  0
    1.0356    0.7223    2.5503 H   0  0  0  0  0  0  0  0  0  0  0  0
   -0.4968   -0.1473    2.6923 H   0  0  0  0  0  0  0  0  0  0  0  0
   -0.4553    1.0179    0.5561 H   0  0  0  0  0  0  0  0  0  0  0  0
   -1.4076   -1.1794    0.6853 H   0  0  0  0  0  0  0  0  0  0  0  0
   -0.0233   -1.8491    0.1399 H   0  0  0  0  0  0  0  0  0  0  0  0
    1.9536    1.3141    0.1963 H   0  0  0  0  0  0  0  0  0  0  0  0
    0.4229   -0.0681   -1.8244 H   0  0  0  0  0  0  0  0  0  0  0  0
    1.9276    0.5072   -2.1783 H   0  0  0  0  0  0  0  0  0  0  0  0
    3.0289   -0.7331    0.9250 H   0  0  0  0  0  0  0  0  0  0  0  0
    2.4052   -1.7129   -1.9158 H   0  0  0  0  0  0  0  0  0  0  0  0
    3.6317   -2.3796   -0.7008 H   0  0  0  0  0  0  0  0  0  0  0  0
  1  2  1  0
  2  3  1  0
  2  4  1  0
  4  5  1  0
  4  6  1  0
  6  7  2  3
  1  8  1  0
  1  9  1  0
  1 10  1  0
  2 11  1  1
  3 12  1  0
  3 13  1  0
  4 14  1  1
  5 15  1  0
  5 16  1  0
  6 17  1  0
  7 18  1  0
  7 19  1  0
M  END
