
     RDKit          3D

 27 26  0  0  0  0  0  0  0  0999 V2000
    1.2660    0.9925    1.6460 C   0  0  1  0  0  0  0  0  0  0  0  0
    2.3710    1.9203    1.2711 N   0  0  0  0  0  0  0  0  0  0  0  0
    1.2287   -0.1890    0.6653 C   0  0  0  0  0  0  0  0  0  0  0  0
    0.0093   -1.0924    0.8684 C   0  0  0  0  0  0  0  0  0  0  0  0
   -0.1458   -2.3264   -0.4698 S   0  0  0  0  0  0  0  0  0  0  0  0
   -0.8433   -1.3081   -1.8152 C   0  0  0  0  0  0  0  0  0  0  0  0
   -2.3073   -0.9476   -1.5727 C   0  0  0  0  0  0  0  0  0  0  0  0
   -2.8987   -0.2238   -2.7758 C   0  0  0  0  0  0  0  0  0  0  0  0
    1.4411    0.5366    3.1140 C   0  0  0  0  0  0  0  0  0  0  0  0
    2.5374    1.0446    3.7533 N   0  0  0  0  0  0  0  0  0  0  0  0
    0.6630   -0.2108    3.6954 O   0  0  0  0  0  0  0  0  0  0  0  0
    0.3306    1.5622    1.5970 H   0  0  0  0  0  0  0  0  0  0  0  0
    3.2290    1.3701    1.1841 H   0  0  0  0  0  0  0  0  0  0  0  0
    2.1855    2.2831    0.3344 H   0  0  0  0  0  0  0  0  0  0  0  0
    1.2256    0.2128   -0.3551 H   0  0  0  0  0  0  0  0  0  0  0  0
    2.1441   -0.7878    0.7670 H   0  0  0  0  0  0  0  0  0  0  0  0
    0.1242   -1.6719    1.7872 H   0  0  0  0  0  0  0  0  0  0  0  0
   -0.9129   -0.5144    0.9587 H   0  0  0  0  0  0  0  0  0  0  0  0
   -0.2337   -0.4120   -1.9659 H   0  0  0  0  0  0  0  0  0  0  0  0
   -0.7600   -1.9083   -2.7285 H   0  0  0  0  0  0  0  0  0  0  0  0
   -2.4069   -0.2985   -0.6975 H   0  0  0  0  0  0  0  0  0  0  0  0
   -2.8964   -1.8529   -1.3817 H   0  0  0  0  0  0  0  0  0  0  0  0
   -2.8541   -0.8577   -3.6681 H   0  0  0  0  0  0  0  0  0  0  0  0
   -3.9462    0.0332   -2.5858 H   0  0  0  0  0  0  0  0  0  0  0  0
   -2.3509    0.7018   -2.9829 H   0  0  0  0  0  0  0  0  0  0  0  0
    2.5801    0.9177    4.7544 H   0  0  0  0  0  0  0  0  0  0  0  0
    2.9257    1.8944    3.3550 H   0  0  0  0  0  0  0  0  0  0  0  0
  1  2  1  0
  1  3  1  0
  3  4  1  0
  4  5  1  0
  5  6  1  0
  6  7  1  0
  7  8  1  0
  1  9  1  0
  9 10  1  0
  9 11  2  0
  1 12  1  1
  2 13  1  0
  2 14  1  0
  3 15  1  0
  3 16  1  0
  4 17  1  0
  4 18  1  0
  6 19  1  0
  6 20  1  0
  7 21  1  0
  7 22  1  0
  8 23  1  0
  8 24  1  0
  8 25  1  0
 10 26  1  0
 10 27  1  0
M  END
