
     RDKit          3D

 38 39  0  0  0  0  0  0  0  0999 V2000
   -0.0919   -0.6911    2.5479 C   0  0  1  0  0  0  0  0  0  0  0  0
   -0.5461   -2.1116    2.6057 N   0  0  0  0  0  0  0  0  0  0  0  0
   -1.2077    0.2812    2.1295 C   0  0  0  0  0  0  0  0  0  0  0  0
   -1.9959   -0.1690    0.5338 S   0  0  0  0  0  0  0  0  0  0  0  0
   -1.0775    0.9534   -0.6089 C   0  0  0  0  0  0  0  0  0  0  0  0
   -1.7333    1.0783   -1.9835 C   0  0  0  0  0  0  0  0  0  0  0  0
   -2.2734   -0.0179   -2.6778 C   0  0  0  0  0  0  0  0  0  0  0  0
   -2.8382    0.1426   -3.9457 C   0  0  0  0  0  0  0  0  0  0  0  0
   -2.8647    1.3984   -4.5460 C   0  0  0  0  0  0  0  0  0  0  0  0
   -2.3234    2.4952   -3.8817 C   0  0  0  0  0  0  0  0  0  0  0  0
   -1.7592    2.3364   -2.6140 C   0  0  0  0  0  0  0  0  0  0  0  0
    0.4045    0.6176   -0.6920 C   0  0  0  0  0  0  0  0  0  0  0  0
    0.8606   -0.6176   -1.1831 C   0  0  0  0  0  0  0  0  0  0  0  0
    2.2260   -0.9035   -1.2399 C   0  0  0  0  0  0  0  0  0  0  0  0
    3.1558    0.0401   -0.8105 C   0  0  0  0  0  0  0  0  0  0  0  0
    2.7228    1.2723   -0.3274 C   0  0  0  0  0  0  0  0  0  0  0  0
    1.3580    1.5612   -0.2708 C   0  0  0  0  0  0  0  0  0  0  0  0
    0.4630   -0.2872    3.9259 C   0  0  0  0  0  0  0  0  0  0  0  0
    1.2449   -1.2484    4.5085 N   0  0  0  0  0  0  0  0  0  0  0  0
    0.2777    0.7981    4.4637 O   0  0  0  0  0  0  0  0  0  0  0  0
    0.7501   -0.6337    1.8514 H   0  0  0  0  0  0  0  0  0  0  0  0
   -0.8947   -2.3397    1.6695 H   0  0  0  0  0  0  0  0  0  0  0  0
   -1.3807   -2.1499    3.1946 H   0  0  0  0  0  0  0  0  0  0  0  0
   -2.0047    0.2684    2.8830 H   0  0  0  0  0  0  0  0  0  0  0  0
   -0.8416    1.3127    2.0910 H   0  0  0  0  0  0  0  0  0  0  0  0
   -1.1866    1.9382   -0.1357 H   0  0  0  0  0  0  0  0  0  0  0  0
   -2.2630   -1.0131   -2.2396 H   0  0  0  0  0  0  0  0  0  0  0  0
   -3.2562   -0.7162   -4.4646 H   0  0  0  0  0  0  0  0  0  0  0  0
   -3.3034    1.5210   -5.5326 H   0  0  0  0  0  0  0  0  0  0  0  0
   -2.3364    3.4753   -4.3514 H   0  0  0  0  0  0  0  0  0  0  0  0
   -1.3331    3.2074   -2.1201 H   0  0  0  0  0  0  0  0  0  0  0  0
    0.1544   -1.3714   -1.5232 H   0  0  0  0  0  0  0  0  0  0  0  0
    2.5632   -1.8641   -1.6208 H   0  0  0  0  0  0  0  0  0  0  0  0
    4.2184   -0.1838   -0.8557 H   0  0  0  0  0  0  0  0  0  0  0  0
    3.4488    2.0102    0.0048 H   0  0  0  0  0  0  0  0  0  0  0  0
    1.0456    2.5318    0.1095 H   0  0  0  0  0  0  0  0  0  0  0  0
    1.5259   -1.1037    5.4676 H   0  0  0  0  0  0  0  0  0  0  0  0
    1.1116   -2.1984    4.1733 H   0  0  0  0  0  0  0  0  0  0  0  0
  1  2  1  0
  1  3  1  0
  3  4  1  0
  4  5  1  0
  5  6  1  0
  6  7  2  0
  7  8  1  0
  8  9  2  0
  9 10  1  0
 10 11  2  0
  5 12  1  0
 12 13  2  0
 13 14  1  0
 14 15  2  0
 15 16  1  0
 16 17  2  0
  1 18  1  0
 18 19  1  0
 18 20  2  0
 11  6  1  0
 17 12  1  0
  1 21  1  6
  2 22  1  0
  2 23  1  0
  3 24  1  0
  3 25  1  0
  5 26  1  0
  7 27  1  0
  8 28  1  0
  9 29  1  0
 10 30  1  0
 11 31  1  0
 13 32  1  0
 14 33  1  0
 15 34  1  0
 16 35  1  0
 17 36  1  0
 19 37  1  0
 19 38  1  0
M  END
