
     RDKit          3D

 14 13  0  0  0  0  0  0  0  0999 V2000
   -0.9183   -1.0714   -1.0950 C   0  0  0  0  0  0  0  0  0  0  0  0
   -0.9485    0.4210   -1.4068 C   0  0  0  0  0  0  0  0  0  0  0  0
    0.4136    1.1067   -1.2013 C   0  0  1  0  0  0  0  0  0  0  0  0
    0.3458    2.4873   -1.7153 N   0  0  0  0  0  0  0  0  0  0  0  0
    0.8167    1.0808    0.2271 C   0  0  0  0  0  0  0  0  0  0  0  0
    1.1101    1.0498    1.3507 N   0  0  0  0  0  0  0  0  0  0  0  0
   -1.8914   -1.5207   -1.3183 H   0  0  0  0  0  0  0  0  0  0  0  0
   -0.1632   -1.5827   -1.7006 H   0  0  0  0  0  0  0  0  0  0  0  0
   -0.7001   -1.2587   -0.0393 H   0  0  0  0  0  0  0  0  0  0  0  0
   -1.2659    0.5383   -2.4510 H   0  0  0  0  0  0  0  0  0  0  0  0
   -1.7177    0.8979   -0.7853 H   0  0  0  0  0  0  0  0  0  0  0  0
    1.1736    0.5770   -1.7876 H   0  0  0  0  0  0  0  0  0  0  0  0
    0.0143    2.4781   -2.6785 H   0  0  0  0  0  0  0  0  0  0  0  0
   -0.3465    3.0137   -1.1813 H   0  0  0  0  0  0  0  0  0  0  0  0
  1  2  1  0
  2  3  1  0
  3  4  1  0
  3  5  1  0
  5  6  3  0
  1  7  1  0
  1  8  1  0
  1  9  1  0
  2 10  1  0
  2 11  1  0
  3 12  1  6
  4 13  1  0
  4 14  1  0
M  END
