
     RDKit          3D

 19 18  0  0  0  0  0  0  0  0999 V2000
    0.5689    0.3039    0.2758 C   0  0  1  0  0  0  0  0  0  0  0  0
    1.4868    1.2836    0.9248 N   0  0  0  0  0  0  0  0  0  0  0  0
   -0.4504    1.1185   -0.5455 C   0  0  0  0  0  0  0  0  0  0  0  0
   -1.5857    0.2844   -1.1443 C   0  0  0  0  0  0  0  0  0  0  0  0
   -2.6549    1.1585   -1.7680 C   0  0  0  0  0  0  0  0  0  0  0  0
   -3.6335    0.3982   -2.3049 F   0  0  0  0  0  0  0  0  0  0  0  0
   -3.2214    1.9705   -0.8517 F   0  0  0  0  0  0  0  0  0  0  0  0
   -2.1436    1.9275   -2.7519 F   0  0  0  0  0  0  0  0  0  0  0  0
    1.2802   -0.7964   -0.5570 C   0  0  0  0  0  0  0  0  0  0  0  0
    2.2459   -1.3954    0.1795 F   0  0  0  0  0  0  0  0  0  0  0  0
    1.8687   -0.2741   -1.6555 F   0  0  0  0  0  0  0  0  0  0  0  0
    0.4223   -1.7581   -0.9561 F   0  0  0  0  0  0  0  0  0  0  0  0
    0.0325   -0.1997    1.0890 H   0  0  0  0  0  0  0  0  0  0  0  0
    2.0280    1.7662    0.2031 H   0  0  0  0  0  0  0  0  0  0  0  0
    2.1812    0.7678    1.4724 H   0  0  0  0  0  0  0  0  0  0  0  0
    0.0660    1.6538   -1.3533 H   0  0  0  0  0  0  0  0  0  0  0  0
   -0.8908    1.8869    0.1046 H   0  0  0  0  0  0  0  0  0  0  0  0
   -2.0412   -0.3390   -0.3668 H   0  0  0  0  0  0  0  0  0  0  0  0
   -1.1952   -0.3845   -1.9177 H   0  0  0  0  0  0  0  0  0  0  0  0
  1  2  1  0
  1  3  1  0
  3  4  1  0
  4  5  1  0
  5  6  1  0
  5  7  1  0
  5  8  1  0
  1  9  1  0
  9 10  1  0
  9 11  1  0
  9 12  1  0
  1 13  1  1
  2 14  1  0
  2 15  1  0
  3 16  1  0
  3 17  1  0
  4 18  1  0
  4 19  1  0
M  END
