
     RDKit          3D

 22 21  0  0  0  0  0  0  0  0999 V2000
   -2.1765    0.8225    1.0099 C   0  0  2  0  0  0  0  0  0  0  0  0
   -2.1143   -0.0512   -0.1773 N   0  0  0  0  0  0  0  0  0  0  0  0
   -1.5675    2.2110    0.7206 C   0  0  0  0  0  0  0  0  0  0  0  0
   -0.1388    2.2500    0.1962 C   0  0  0  0  0  0  0  0  0  0  0  0
   -1.6835    0.1433    2.3133 C   0  0  0  0  0  0  0  0  0  0  0  0
    0.0409   -0.4299    2.3555 S   0  0  0  0  0  0  0  0  0  0  0  0
   -0.1443   -2.0864    1.8783 C   0  0  0  0  0  0  0  0  0  0  0  0
   -0.7165   -2.3284    0.6799 N   0  0  0  0  0  0  0  0  0  0  0  0
    0.3043   -3.0077    2.6494 N   0  0  0  0  0  0  0  0  0  0  0  0
   -3.2459    1.0140    1.1791 H   0  0  0  0  0  0  0  0  0  0  0  0
   -2.7905   -0.8099   -0.0485 H   0  0  0  0  0  0  0  0  0  0  0  0
   -2.4515    0.4734   -0.9873 H   0  0  0  0  0  0  0  0  0  0  0  0
   -1.6305    2.8301    1.6241 H   0  0  0  0  0  0  0  0  0  0  0  0
   -2.2021    2.7077   -0.0262 H   0  0  0  0  0  0  0  0  0  0  0  0
    0.5860    1.9983    0.9728 H   0  0  0  0  0  0  0  0  0  0  0  0
    0.1003    3.2648   -0.1404 H   0  0  0  0  0  0  0  0  0  0  0  0
    0.0053    1.5786   -0.6550 H   0  0  0  0  0  0  0  0  0  0  0  0
   -1.7958    0.8570    3.1377 H   0  0  0  0  0  0  0  0  0  0  0  0
   -2.3402   -0.7011    2.5555 H   0  0  0  0  0  0  0  0  0  0  0  0
   -0.2608   -3.0530    0.1420 H   0  0  0  0  0  0  0  0  0  0  0  0
   -0.8280   -1.4682    0.1320 H   0  0  0  0  0  0  0  0  0  0  0  0
    0.1023   -3.9137    2.2246 H   0  0  0  0  0  0  0  0  0  0  0  0
  1  2  1  0
  1  3  1  0
  3  4  1  0
  1  5  1  0
  5  6  1  0
  6  7  1  0
  7  8  1  0
  7  9  2  3
  1 10  1  1
  2 11  1  0
  2 12  1  0
  3 13  1  0
  3 14  1  0
  4 15  1  0
  4 16  1  0
  4 17  1  0
  5 18  1  0
  5 19  1  0
  8 20  1  0
  8 21  1  0
  9 22  1  0
M  END
