
     RDKit          3D

 20 19  0  0  0  0  0  0  0  0999 V2000
   -1.6614    1.8832    2.3141 N   0  0  0  0  0  0  0  0  0  0  0  0
   -1.9145    1.1919    1.0547 C   0  0  0  0  0  0  0  0  0  0  0  0
   -1.1691   -0.1399    0.9465 C   0  0  0  0  0  0  0  0  0  0  0  0
    0.3631   -0.0478    1.0011 C   0  0  0  0  0  0  0  0  0  0  0  0
    1.0000    0.8647   -0.0599 C   0  0  2  0  0  0  0  0  0  0  0  0
    0.6472    0.4234   -1.4061 N   0  0  0  0  0  0  0  0  0  0  0  0
    2.4675    0.8609    0.0758 C   0  0  0  0  0  0  0  0  0  0  0  0
    3.6642    0.8602    0.1823 C   0  0  0  0  0  0  0  0  0  0  0  0
   -1.8663    1.2595    3.0938 H   0  0  0  0  0  0  0  0  0  0  0  0
   -0.6759    2.1249    2.3937 H   0  0  0  0  0  0  0  0  0  0  0  0
   -2.9908    0.9996    0.9810 H   0  0  0  0  0  0  0  0  0  0  0  0
   -1.6617    1.8527    0.2197 H   0  0  0  0  0  0  0  0  0  0  0  0
   -1.4702   -0.6316    0.0133 H   0  0  0  0  0  0  0  0  0  0  0  0
   -1.5017   -0.8040    1.7549 H   0  0  0  0  0  0  0  0  0  0  0  0
    0.6685    0.2900    2.0003 H   0  0  0  0  0  0  0  0  0  0  0  0
    0.7656   -1.0662    0.9038 H   0  0  0  0  0  0  0  0  0  0  0  0
    0.6428    1.8912    0.0751 H   0  0  0  0  0  0  0  0  0  0  0  0
    1.1151    1.0296   -2.0792 H   0  0  0  0  0  0  0  0  0  0  0  0
    1.0330   -0.5078   -1.5588 H   0  0  0  0  0  0  0  0  0  0  0  0
    4.7258    0.8604    0.2768 H   0  0  0  0  0  0  0  0  0  0  0  0
  1  2  1  0
  2  3  1  0
  3  4  1  0
  4  5  1  0
  5  6  1  0
  5  7  1  0
  7  8  3  0
  1  9  1  0
  1 10  1  0
  2 11  1  0
  2 12  1  0
  3 13  1  0
  3 14  1  0
  4 15  1  0
  4 16  1  0
  5 17  1  1
  6 18  1  0
  6 19  1  0
  8 20  1  0
M  END
