
     RDKit          3D

 35 35  0  0  0  0  0  0  0  0999 V2000
   -1.3582    1.4102    2.4162 C   0  0  0  0  0  0  0  0  0  0  0  0
   -2.3246    0.9049    1.3396 C   0  0  0  0  0  0  0  0  0  0  0  0
   -2.1658    1.7475    0.0687 C   0  0  0  0  0  0  0  0  0  0  0  0
   -2.1861   -0.6273    1.1023 C   0  0  1  0  0  0  0  0  0  0  0  0
   -3.2639   -1.0819    0.2179 N   0  0  0  0  0  0  0  0  0  0  0  0
   -0.7997   -1.0475    0.5652 C   0  0  0  0  0  0  0  0  0  0  0  0
   -0.5917   -2.5632    0.3964 C   0  0  0  0  0  0  0  0  0  0  0  0
   -0.9597   -3.1316   -0.9810 C   0  0  0  0  0  0  0  0  0  0  0  0
   -0.0771   -2.6403   -2.1029 C   0  0  0  0  0  0  0  0  0  0  0  0
   -0.5477   -1.6755   -3.0040 C   0  0  0  0  0  0  0  0  0  0  0  0
    0.2682   -1.2147   -4.0382 C   0  0  0  0  0  0  0  0  0  0  0  0
    1.5613   -1.7137   -4.1821 C   0  0  0  0  0  0  0  0  0  0  0  0
    2.0401   -2.6726   -3.2913 C   0  0  0  0  0  0  0  0  0  0  0  0
    1.2255   -3.1338   -2.2557 C   0  0  0  0  0  0  0  0  0  0  0  0
   -0.3181    1.3866    2.0765 H   0  0  0  0  0  0  0  0  0  0  0  0
   -1.4377    0.8077    3.3270 H   0  0  0  0  0  0  0  0  0  0  0  0
   -1.5921    2.4468    2.6830 H   0  0  0  0  0  0  0  0  0  0  0  0
   -3.3385    1.0876    1.7235 H   0  0  0  0  0  0  0  0  0  0  0  0
   -2.3700    2.8023    0.2839 H   0  0  0  0  0  0  0  0  0  0  0  0
   -2.8646    1.4333   -0.7127 H   0  0  0  0  0  0  0  0  0  0  0  0
   -1.1503    1.6869   -0.3350 H   0  0  0  0  0  0  0  0  0  0  0  0
   -2.3363   -1.1217    2.0712 H   0  0  0  0  0  0  0  0  0  0  0  0
   -4.1558   -0.7132    0.5474 H   0  0  0  0  0  0  0  0  0  0  0  0
   -3.3491   -2.0952    0.2787 H   0  0  0  0  0  0  0  0  0  0  0  0
   -0.5702   -0.5249   -0.3680 H   0  0  0  0  0  0  0  0  0  0  0  0
   -0.0466   -0.7135    1.2894 H   0  0  0  0  0  0  0  0  0  0  0  0
   -1.1562   -3.0994    1.1690 H   0  0  0  0  0  0  0  0  0  0  0  0
    0.4668   -2.7822    0.5893 H   0  0  0  0  0  0  0  0  0  0  0  0
   -2.0088   -2.9374   -1.2234 H   0  0  0  0  0  0  0  0  0  0  0  0
   -0.8744   -4.2258   -0.9411 H   0  0  0  0  0  0  0  0  0  0  0  0
   -1.5525   -1.2710   -2.8968 H   0  0  0  0  0  0  0  0  0  0  0  0
   -0.1060   -0.4643   -4.7293 H   0  0  0  0  0  0  0  0  0  0  0  0
    2.1960   -1.3541   -4.9874 H   0  0  0  0  0  0  0  0  0  0  0  0
    3.0486   -3.0616   -3.4024 H   0  0  0  0  0  0  0  0  0  0  0  0
    1.6122   -3.8821   -1.5680 H   0  0  0  0  0  0  0  0  0  0  0  0
  1  2  1  0
  2  3  1  0
  2  4  1  0
  4  5  1  0
  4  6  1  0
  6  7  1  0
  7  8  1  0
  8  9  1  0
  9 10  2  0
 10 11  1  0
 11 12  2  0
 12 13  1  0
 13 14  2  0
 14  9  1  0
  1 15  1  0
  1 16  1  0
  1 17  1  0
  2 18  1  0
  3 19  1  0
  3 20  1  0
  3 21  1  0
  4 22  1  1
  5 23  1  0
  5 24  1  0
  6 25  1  0
  6 26  1  0
  7 27  1  0
  7 28  1  0
  8 29  1  0
  8 30  1  0
 10 31  1  0
 11 32  1  0
 12 33  1  0
 13 34  1  0
 14 35  1  0
M  END
