
     RDKit          3D

 36 37  0  0  0  0  0  0  0  0999 V2000
   -0.5834   -3.6285    0.1710 N   0  0  0  0  0  0  0  0  0  0  0  0
   -0.4507   -2.9347    1.4709 C   0  0  1  0  0  0  0  0  0  0  0  0
    0.6085   -1.9142    1.3744 C   0  0  0  0  0  0  0  0  0  0  0  0
    1.4463   -1.0587    1.2762 C   0  0  0  0  0  0  0  0  0  0  0  0
    2.4174   -0.0182    1.1402 C   0  0  0  0  0  0  0  0  0  0  0  0
    2.2001    1.0218    0.2329 C   0  0  0  0  0  0  0  0  0  0  0  0
    3.1449    2.0410    0.0993 C   0  0  0  0  0  0  0  0  0  0  0  0
    4.3060    2.0212    0.8722 C   0  0  0  0  0  0  0  0  0  0  0  0
    4.5241    0.9834    1.7786 C   0  0  0  0  0  0  0  0  0  0  0  0
    3.5802   -0.0368    1.9132 C   0  0  0  0  0  0  0  0  0  0  0  0
   -1.8129   -2.3196    1.9680 C   0  0  2  0  0  0  0  0  0  0  0  0
   -2.8609   -3.3530    2.0182 N   0  0  0  0  0  0  0  0  0  0  0  0
   -2.2709   -1.2228    1.0880 C   0  0  0  0  0  0  0  0  0  0  0  0
   -2.6064   -0.3173    0.3731 C   0  0  0  0  0  0  0  0  0  0  0  0
   -2.9720    0.7708   -0.4790 C   0  0  0  0  0  0  0  0  0  0  0  0
   -3.9593    0.5995   -1.4516 C   0  0  0  0  0  0  0  0  0  0  0  0
   -4.3091    1.6631   -2.2859 C   0  0  0  0  0  0  0  0  0  0  0  0
   -3.6726    2.8969   -2.1483 C   0  0  0  0  0  0  0  0  0  0  0  0
   -2.6863    3.0695   -1.1772 C   0  0  0  0  0  0  0  0  0  0  0  0
   -2.3352    2.0069   -0.3425 C   0  0  0  0  0  0  0  0  0  0  0  0
    0.3360   -3.9798   -0.0940 H   0  0  0  0  0  0  0  0  0  0  0  0
   -0.8263   -2.9302   -0.5326 H   0  0  0  0  0  0  0  0  0  0  0  0
   -0.1404   -3.6900    2.2044 H   0  0  0  0  0  0  0  0  0  0  0  0
    1.2975    1.0434   -0.3734 H   0  0  0  0  0  0  0  0  0  0  0  0
    2.9756    2.8490   -0.6076 H   0  0  0  0  0  0  0  0  0  0  0  0
    5.0418    2.8147    0.7680 H   0  0  0  0  0  0  0  0  0  0  0  0
    5.4291    0.9683    2.3805 H   0  0  0  0  0  0  0  0  0  0  0  0
    3.7575   -0.8420    2.6218 H   0  0  0  0  0  0  0  0  0  0  0  0
   -1.6742   -1.9228    2.9811 H   0  0  0  0  0  0  0  0  0  0  0  0
   -2.7944   -3.8767    1.1411 H   0  0  0  0  0  0  0  0  0  0  0  0
   -3.7737   -2.9034    2.0228 H   0  0  0  0  0  0  0  0  0  0  0  0
   -4.4599   -0.3589   -1.5650 H   0  0  0  0  0  0  0  0  0  0  0  0
   -5.0783    1.5294   -3.0422 H   0  0  0  0  0  0  0  0  0  0  0  0
   -3.9465    3.7246   -2.7976 H   0  0  0  0  0  0  0  0  0  0  0  0
   -2.1918    4.0313   -1.0689 H   0  0  0  0  0  0  0  0  0  0  0  0
   -1.5662    2.1489    0.4132 H   0  0  0  0  0  0  0  0  0  0  0  0
  1  2  1  0
  2  3  1  0
  3  4  3  0
  4  5  1  0
  5  6  2  0
  6  7  1  0
  7  8  2  0
  8  9  1  0
  9 10  2  0
  2 11  1  0
 11 12  1  0
 11 13  1  0
 13 14  3  0
 14 15  1  0
 15 16  2  0
 16 17  1  0
 17 18  2  0
 18 19  1  0
 19 20  2  0
 10  5  1  0
 20 15  1  0
  1 21  1  0
  1 22  1  0
  2 23  1  1
  6 24  1  0
  7 25  1  0
  8 26  1  0
  9 27  1  0
 10 28  1  0
 11 29  1  1
 12 30  1  0
 12 31  1  0
 16 32  1  0
 17 33  1  0
 18 34  1  0
 19 35  1  0
 20 36  1  0
M  END
