
     RDKit          3D

 32 31  0  0  0  0  0  0  0  0999 V2000
   -3.4885    1.2695    0.6354 C   0  0  0  0  0  0  0  0  0  0  0  0
   -2.5348    0.5767   -0.3380 C   0  0  2  0  0  0  0  0  0  0  0  0
   -3.3310   -0.1216   -1.3469 N   0  0  0  0  0  0  0  0  0  0  0  0
   -1.5984   -0.3800    0.4221 C   0  0  0  0  0  0  0  0  0  0  0  0
   -0.5617   -1.1182   -0.4358 C   0  0  0  0  0  0  0  0  0  0  0  0
    0.3794   -0.2263   -1.2511 C   0  0  0  0  0  0  0  0  0  0  0  0
    1.1946    0.7888   -0.4432 C   0  0  0  0  0  0  0  0  0  0  0  0
    2.0727    0.2060    0.6717 C   0  0  0  0  0  0  0  0  0  0  0  0
    3.1104   -0.8161    0.2087 C   0  0  0  0  0  0  0  0  0  0  0  0
    4.2205   -0.2169   -0.6294 C   0  0  0  0  0  0  0  0  0  0  0  0
    5.0341   -1.1409   -1.2188 N   0  0  0  0  0  0  0  0  0  0  0  0
    4.4230    0.9810   -0.7772 O   0  0  0  0  0  0  0  0  0  0  0  0
   -2.9284    1.8423    1.3825 H   0  0  0  0  0  0  0  0  0  0  0  0
   -4.1180    0.5473    1.1677 H   0  0  0  0  0  0  0  0  0  0  0  0
   -4.1474    1.9691    0.1089 H   0  0  0  0  0  0  0  0  0  0  0  0
   -1.9467    1.3534   -0.8384 H   0  0  0  0  0  0  0  0  0  0  0  0
   -3.8394   -0.8921   -0.9149 H   0  0  0  0  0  0  0  0  0  0  0  0
   -2.7184   -0.5392   -2.0453 H   0  0  0  0  0  0  0  0  0  0  0  0
   -1.0770    0.1807    1.2077 H   0  0  0  0  0  0  0  0  0  0  0  0
   -2.1992   -1.1351    0.9470 H   0  0  0  0  0  0  0  0  0  0  0  0
   -1.0775   -1.7983   -1.1245 H   0  0  0  0  0  0  0  0  0  0  0  0
    0.0316   -1.7653    0.2215 H   0  0  0  0  0  0  0  0  0  0  0  0
   -0.2003    0.3181   -2.0061 H   0  0  0  0  0  0  0  0  0  0  0  0
    1.0618   -0.8695   -1.8195 H   0  0  0  0  0  0  0  0  0  0  0  0
    0.5150    1.5245    0.0034 H   0  0  0  0  0  0  0  0  0  0  0  0
    1.8220    1.3549   -1.1418 H   0  0  0  0  0  0  0  0  0  0  0  0
    1.4334   -0.2626    1.4287 H   0  0  0  0  0  0  0  0  0  0  0  0
    2.5810    1.0366    1.1775 H   0  0  0  0  0  0  0  0  0  0  0  0
    3.5847   -1.2560    1.0948 H   0  0  0  0  0  0  0  0  0  0  0  0
    2.6376   -1.6338   -0.3446 H   0  0  0  0  0  0  0  0  0  0  0  0
    5.0114   -2.1204   -0.9735 H   0  0  0  0  0  0  0  0  0  0  0  0
    5.8348   -0.7893   -1.7281 H   0  0  0  0  0  0  0  0  0  0  0  0
  1  2  1  0
  2  3  1  0
  2  4  1  0
  4  5  1  0
  5  6  1  0
  6  7  1  0
  7  8  1  0
  8  9  1  0
  9 10  1  0
 10 11  1  0
 10 12  2  0
  1 13  1  0
  1 14  1  0
  1 15  1  0
  2 16  1  6
  3 17  1  0
  3 18  1  0
  4 19  1  0
  4 20  1  0
  5 21  1  0
  5 22  1  0
  6 23  1  0
  6 24  1  0
  7 25  1  0
  7 26  1  0
  8 27  1  0
  8 28  1  0
  9 29  1  0
  9 30  1  0
 11 31  1  0
 11 32  1  0
M  END
