
     RDKit          3D

 27 26  0  0  0  0  0  0  0  0999 V2000
   -1.9694    1.5039   -0.1950 C   0  0  0  0  0  0  0  0  0  0  0  0
   -1.5398    0.1358    0.3360 C   0  0  0  0  0  0  0  0  0  0  0  0
   -2.7765   -0.7355    0.5758 C   0  0  0  0  0  0  0  0  0  0  0  0
   -0.5714   -0.5893   -0.6212 C   0  0  0  0  0  0  0  0  0  0  0  0
    0.7513    0.1463   -0.9144 C   0  0  2  0  0  0  0  0  0  0  0  0
    1.5315   -0.6733   -1.8518 N   0  0  0  0  0  0  0  0  0  0  0  0
    1.5862    0.5001    0.3354 C   0  0  0  0  0  0  0  0  0  0  0  0
    1.9518   -0.6607    1.2691 C   0  0  0  0  0  0  0  0  0  0  0  0
    2.8519   -1.6266    0.6428 N   0  0  0  0  0  0  0  0  0  0  0  0
   -2.4177    1.4204   -1.1907 H   0  0  0  0  0  0  0  0  0  0  0  0
   -1.1209    2.1916   -0.2591 H   0  0  0  0  0  0  0  0  0  0  0  0
   -2.7084    1.9637    0.4701 H   0  0  0  0  0  0  0  0  0  0  0  0
   -1.0510    0.2805    1.3064 H   0  0  0  0  0  0  0  0  0  0  0  0
   -3.4595   -0.2551    1.2845 H   0  0  0  0  0  0  0  0  0  0  0  0
   -3.3248   -0.9136   -0.3556 H   0  0  0  0  0  0  0  0  0  0  0  0
   -2.4927   -1.7070    0.9942 H   0  0  0  0  0  0  0  0  0  0  0  0
   -0.3549   -1.5861   -0.2140 H   0  0  0  0  0  0  0  0  0  0  0  0
   -1.0912   -0.7658   -1.5740 H   0  0  0  0  0  0  0  0  0  0  0  0
    0.5206    1.0807   -1.4388 H   0  0  0  0  0  0  0  0  0  0  0  0
    2.3627   -0.1560   -2.1338 H   0  0  0  0  0  0  0  0  0  0  0  0
    1.9070   -1.4672   -1.3137 H   0  0  0  0  0  0  0  0  0  0  0  0
    2.5083    1.0062    0.0172 H   0  0  0  0  0  0  0  0  0  0  0  0
    1.0380    1.2468    0.9232 H   0  0  0  0  0  0  0  0  0  0  0  0
    2.4439   -0.2558    2.1609 H   0  0  0  0  0  0  0  0  0  0  0  0
    1.0506   -1.1769    1.6136 H   0  0  0  0  0  0  0  0  0  0  0  0
    3.0579   -2.3703    1.3108 H   0  0  0  0  0  0  0  0  0  0  0  0
    3.7460   -1.1751    0.4477 H   0  0  0  0  0  0  0  0  0  0  0  0
  1  2  1  0
  2  3  1  0
  2  4  1  0
  4  5  1  0
  5  6  1  0
  5  7  1  0
  7  8  1  0
  8  9  1  0
  1 10  1  0
  1 11  1  0
  1 12  1  0
  2 13  1  0
  3 14  1  0
  3 15  1  0
  3 16  1  0
  4 17  1  0
  4 18  1  0
  5 19  1  6
  6 20  1  0
  6 21  1  0
  7 22  1  0
  7 23  1  0
  8 24  1  0
  8 25  1  0
  9 26  1  0
  9 27  1  0
M  END
