
     RDKit          3D

 31 32  0  0  0  0  0  0  0  0999 V2000
    4.3890    1.3858   -0.1071 C   0  0  0  0  0  0  0  0  0  0  0  0
    3.2440    0.3945   -0.3589 C   0  0  0  0  0  0  0  0  0  0  0  0
    2.2322    1.0487   -1.3072 C   0  0  0  0  0  0  0  0  0  0  0  0
    2.5836   -0.0726    0.9642 C   0  0  2  0  0  0  0  0  0  0  0  0
    3.6124   -0.6740    1.8557 N   0  0  0  0  0  0  0  0  0  0  0  0
    1.5011   -1.1549    0.6885 C   0  0  0  0  0  0  0  0  0  0  0  0
    1.8709   -2.3027    0.4097 O   0  0  0  0  0  0  0  0  0  0  0  0
    0.0796   -0.8221    0.7654 C   0  0  0  0  0  0  0  0  0  0  0  0
   -0.9646   -1.6802    0.4738 C   0  0  0  0  0  0  0  0  0  0  0  0
   -2.2601   -1.0888    0.6362 C   0  0  0  0  0  0  0  0  0  0  0  0
   -2.1551    0.2351    1.0634 C   0  0  0  0  0  0  0  0  0  0  0  0
   -0.5109    0.7008    1.2496 S   0  0  0  0  0  0  0  0  0  0  0  0
   -3.2960    1.0280    1.2938 C   0  0  0  0  0  0  0  0  0  0  0  0
   -4.5593    0.4690    1.0877 C   0  0  0  0  0  0  0  0  0  0  0  0
   -4.6885   -0.8462    0.6632 C   0  0  0  0  0  0  0  0  0  0  0  0
   -3.5527   -1.6291    0.4362 C   0  0  0  0  0  0  0  0  0  0  0  0
    4.8179    1.7326   -1.0537 H   0  0  0  0  0  0  0  0  0  0  0  0
    5.2015    0.9259    0.4641 H   0  0  0  0  0  0  0  0  0  0  0  0
    4.0368    2.2637    0.4453 H   0  0  0  0  0  0  0  0  0  0  0  0
    3.6625   -0.4776   -0.8797 H   0  0  0  0  0  0  0  0  0  0  0  0
    1.7541    1.9164   -0.8408 H   0  0  0  0  0  0  0  0  0  0  0  0
    2.7260    1.3915   -2.2232 H   0  0  0  0  0  0  0  0  0  0  0  0
    1.4522    0.3440   -1.6101 H   0  0  0  0  0  0  0  0  0  0  0  0
    2.1731    0.7840    1.5024 H   0  0  0  0  0  0  0  0  0  0  0  0
    3.9510   -1.5268    1.3982 H   0  0  0  0  0  0  0  0  0  0  0  0
    3.1608   -1.0039    2.7094 H   0  0  0  0  0  0  0  0  0  0  0  0
   -0.8051   -2.7034    0.1505 H   0  0  0  0  0  0  0  0  0  0  0  0
   -3.1983    2.0575    1.6267 H   0  0  0  0  0  0  0  0  0  0  0  0
   -5.4481    1.0713    1.2623 H   0  0  0  0  0  0  0  0  0  0  0  0
   -5.6767   -1.2721    0.5060 H   0  0  0  0  0  0  0  0  0  0  0  0
   -3.6661   -2.6582    0.1040 H   0  0  0  0  0  0  0  0  0  0  0  0
  1  2  1  0
  2  3  1  0
  2  4  1  0
  4  5  1  0
  4  6  1  0
  6  7  2  0
  6  8  1  0
  8  9  2  0
  9 10  1  0
 10 11  2  0
 11 12  1  0
 11 13  1  0
 13 14  2  0
 14 15  1  0
 15 16  2  0
 12  8  1  0
 16 10  1  0
  1 17  1  0
  1 18  1  0
  1 19  1  0
  2 20  1  0
  3 21  1  0
  3 22  1  0
  3 23  1  0
  4 24  1  1
  5 25  1  0
  5 26  1  0
  9 27  1  0
 13 28  1  0
 14 29  1  0
 15 30  1  0
 16 31  1  0
M  END
