
     RDKit          3D

 31 31  0  0  0  0  0  0  0  0999 V2000
    1.4282    2.4776   -3.9503 C   0  0  0  0  0  0  0  0  0  0  0  0
    1.3986    1.7831   -2.6209 C   0  0  0  0  0  0  0  0  0  0  0  0
    2.1258    0.6054   -2.4211 C   0  0  0  0  0  0  0  0  0  0  0  0
    2.0791   -0.0555   -1.1907 C   0  0  0  0  0  0  0  0  0  0  0  0
    1.2839    0.4304   -0.1422 C   0  0  0  0  0  0  0  0  0  0  0  0
    1.2786   -0.2859    1.1862 C   0  0  0  0  0  0  0  0  0  0  0  0
   -0.3631   -0.5541    1.9300 S   0  0  0  0  0  0  0  0  0  0  0  0
   -1.2392   -1.4884    0.6063 C   0  0  0  0  0  0  0  0  0  0  0  0
   -0.8247   -2.9554    0.3879 C   0  0  2  0  0  0  0  0  0  0  0  0
   -0.5816   -3.6901    1.6493 N   0  0  0  0  0  0  0  0  0  0  0  0
    0.3869   -3.0879   -0.5526 C   0  0  0  0  0  0  0  0  0  0  0  0
    0.1720   -2.7601   -1.8608 N   0  0  0  0  0  0  0  0  0  0  0  0
    1.4868   -3.5031   -0.1937 O   0  0  0  0  0  0  0  0  0  0  0  0
    0.5684    1.6192   -0.3452 C   0  0  0  0  0  0  0  0  0  0  0  0
    0.6116    2.2786   -1.5768 C   0  0  0  0  0  0  0  0  0  0  0  0
    0.6904    2.0252   -4.6249 H   0  0  0  0  0  0  0  0  0  0  0  0
    2.4240    2.4020   -4.4064 H   0  0  0  0  0  0  0  0  0  0  0  0
    1.1990    3.5455   -3.8409 H   0  0  0  0  0  0  0  0  0  0  0  0
    2.7477    0.2025   -3.2175 H   0  0  0  0  0  0  0  0  0  0  0  0
    2.6736   -0.9590   -1.0555 H   0  0  0  0  0  0  0  0  0  0  0  0
    1.7853   -1.2525    1.1205 H   0  0  0  0  0  0  0  0  0  0  0  0
    1.8630    0.3149    1.8929 H   0  0  0  0  0  0  0  0  0  0  0  0
   -1.2021   -0.9124   -0.3229 H   0  0  0  0  0  0  0  0  0  0  0  0
   -2.2900   -1.4852    0.9212 H   0  0  0  0  0  0  0  0  0  0  0  0
   -1.6488   -3.4702   -0.1227 H   0  0  0  0  0  0  0  0  0  0  0  0
    0.0093   -4.4980    1.4341 H   0  0  0  0  0  0  0  0  0  0  0  0
    0.0047   -3.0989    2.2447 H   0  0  0  0  0  0  0  0  0  0  0  0
    0.9839   -2.7719   -2.4656 H   0  0  0  0  0  0  0  0  0  0  0  0
   -0.6098   -2.1915   -2.1575 H   0  0  0  0  0  0  0  0  0  0  0  0
   -0.0344    2.0437    0.4554 H   0  0  0  0  0  0  0  0  0  0  0  0
    0.0351    3.1924   -1.7081 H   0  0  0  0  0  0  0  0  0  0  0  0
  1  2  1  0
  2  3  2  0
  3  4  1  0
  4  5  2  0
  5  6  1  0
  6  7  1  0
  7  8  1  0
  8  9  1  0
  9 10  1  0
  9 11  1  0
 11 12  1  0
 11 13  2  0
  5 14  1  0
 14 15  2  0
 15  2  1  0
  1 16  1  0
  1 17  1  0
  1 18  1  0
  3 19  1  0
  4 20  1  0
  6 21  1  0
  6 22  1  0
  8 23  1  0
  8 24  1  0
  9 25  1  6
 10 26  1  0
 10 27  1  0
 12 28  1  0
 12 29  1  0
 14 30  1  0
 15 31  1  0
M  END
