
     RDKit          3D

 16 15  0  0  0  0  0  0  0  0999 V2000
   -0.4048   -2.1201   -1.1490 C   0  0  0  0  0  0  0  0  0  0  0  0
    0.6467   -1.8607   -0.0756 C   0  0  2  0  0  0  0  0  0  0  0  0
    0.1036   -2.1994    1.2352 N   0  0  0  0  0  0  0  0  0  0  0  0
    1.0640   -0.4528   -0.0812 C   0  0  0  0  0  0  0  0  0  0  0  0
    1.4068    0.6985   -0.0856 C   0  0  0  0  0  0  0  0  0  0  0  0
    1.8031    2.0616   -0.0826 C   0  0  0  0  0  0  0  0  0  0  0  0
    2.7098    2.5215   -0.9468 C   0  0  0  0  0  0  0  0  0  0  0  0
    3.2154    4.1586   -0.9760 Cl  0  0  0  0  0  0  0  0  0  0  0  0
   -0.0130   -1.8786   -2.1439 H   0  0  0  0  0  0  0  0  0  0  0  0
   -1.3031   -1.5103   -0.9940 H   0  0  0  0  0  0  0  0  0  0  0  0
   -0.7081   -3.1731   -1.1577 H   0  0  0  0  0  0  0  0  0  0  0  0
    1.5174   -2.4971   -0.2715 H   0  0  0  0  0  0  0  0  0  0  0  0
    0.8221   -2.0440    1.9404 H   0  0  0  0  0  0  0  0  0  0  0  0
   -0.1195   -3.1918    1.2631 H   0  0  0  0  0  0  0  0  0  0  0  0
    1.3437    2.7220    0.6463 H   0  0  0  0  0  0  0  0  0  0  0  0
    3.2057    1.9208   -1.6987 H   0  0  0  0  0  0  0  0  0  0  0  0
  1  2  1  0
  2  3  1  0
  2  4  1  0
  4  5  3  0
  5  6  1  0
  6  7  2  0
  7  8  1  0
  1  9  1  0
  1 10  1  0
  1 11  1  0
  2 12  1  6
  3 13  1  0
  3 14  1  0
  6 15  1  0
  7 16  1  0
M  END
