
     RDKit          3D

 20 19  0  0  0  0  0  0  0  0999 V2000
    0.9310    2.3294    0.5620 C   0  0  0  0  0  0  0  0  0  0  0  0
    0.0683    1.2330   -0.0835 C   0  0  0  0  0  0  0  0  0  0  0  0
   -1.1853    1.0411    0.7766 C   0  0  0  0  0  0  0  0  0  0  0  0
    0.8738   -0.0857   -0.3011 C   0  0  2  0  0  0  0  0  0  0  0  0
    2.0302    0.1719   -1.1825 N   0  0  0  0  0  0  0  0  0  0  0  0
    0.0534   -1.2325   -0.9326 C   0  0  0  0  0  0  0  0  0  0  0  0
   -0.7071   -1.9916    0.0705 C   0  0  0  0  0  0  0  0  0  0  0  0
   -1.3136   -2.5863    0.8615 N   0  0  0  0  0  0  0  0  0  0  0  0
    1.7577    2.6293   -0.0890 H   0  0  0  0  0  0  0  0  0  0  0  0
    1.3494    1.9914    1.5161 H   0  0  0  0  0  0  0  0  0  0  0  0
    0.3376    3.2303    0.7541 H   0  0  0  0  0  0  0  0  0  0  0  0
   -0.2637    1.6085   -1.0613 H   0  0  0  0  0  0  0  0  0  0  0  0
   -0.9415    0.5746    1.7368 H   0  0  0  0  0  0  0  0  0  0  0  0
   -1.6672    2.0030    0.9848 H   0  0  0  0  0  0  0  0  0  0  0  0
   -1.9300    0.4259    0.2639 H   0  0  0  0  0  0  0  0  0  0  0  0
    1.2750   -0.4220    0.6641 H   0  0  0  0  0  0  0  0  0  0  0  0
    1.7398    0.7097   -1.9998 H   0  0  0  0  0  0  0  0  0  0  0  0
    2.7142    0.7523   -0.6961 H   0  0  0  0  0  0  0  0  0  0  0  0
    0.7266   -1.9438   -1.4298 H   0  0  0  0  0  0  0  0  0  0  0  0
   -0.6155   -0.8439   -1.7095 H   0  0  0  0  0  0  0  0  0  0  0  0
  1  2  1  0
  2  3  1  0
  2  4  1  0
  4  5  1  0
  4  6  1  0
  6  7  1  0
  7  8  3  0
  1  9  1  0
  1 10  1  0
  1 11  1  0
  2 12  1  0
  3 13  1  0
  3 14  1  0
  3 15  1  0
  4 16  1  1
  5 17  1  0
  5 18  1  0
  6 19  1  0
  6 20  1  0
M  END
