
     RDKit          3D

 34 34  0  0  0  0  0  0  0  0999 V2000
    0.4933   -2.1608    1.6534 C   0  0  0  0  0  0  0  0  0  0  0  0
    0.8128   -2.0753    0.1578 C   0  0  0  0  0  0  0  0  0  0  0  0
    1.9314   -3.0719   -0.1653 C   0  0  0  0  0  0  0  0  0  0  0  0
    1.2303   -0.6463   -0.2575 C   0  0  0  0  0  0  0  0  0  0  0  0
    0.1050    0.1854   -0.9208 C   0  0  2  0  0  0  0  0  0  0  0  0
    0.6838    1.4657   -1.3443 N   0  0  0  0  0  0  0  0  0  0  0  0
   -1.1004    0.4132    0.0149 C   0  0  0  0  0  0  0  0  0  0  0  0
   -2.2211    1.3131   -0.5361 C   0  0  0  0  0  0  0  0  0  0  0  0
   -2.9149    0.7894   -2.1424 S   0  0  0  0  0  0  0  0  0  0  0  0
   -3.7232   -0.7598   -1.6555 C   0  0  0  0  0  0  0  0  0  0  0  0
   -4.8108   -0.5573   -0.6106 C   0  0  0  0  0  0  0  0  0  0  0  0
   -4.2950   -0.0834    0.7406 C   0  0  0  0  0  0  0  0  0  0  0  0
   -3.5585    1.5741    0.6859 S   0  0  0  0  0  0  0  0  0  0  0  0
    0.1694   -3.1726    1.9205 H   0  0  0  0  0  0  0  0  0  0  0  0
    1.3733   -1.9205    2.2604 H   0  0  0  0  0  0  0  0  0  0  0  0
   -0.3062   -1.4738    1.9409 H   0  0  0  0  0  0  0  0  0  0  0  0
   -0.0735   -2.3825   -0.4107 H   0  0  0  0  0  0  0  0  0  0  0  0
    2.8566   -2.8172    0.3630 H   0  0  0  0  0  0  0  0  0  0  0  0
    2.1444   -3.0811   -1.2396 H   0  0  0  0  0  0  0  0  0  0  0  0
    1.6436   -4.0883    0.1239 H   0  0  0  0  0  0  0  0  0  0  0  0
    1.6344   -0.1055    0.6089 H   0  0  0  0  0  0  0  0  0  0  0  0
    2.0565   -0.7163   -0.9791 H   0  0  0  0  0  0  0  0  0  0  0  0
   -0.2195   -0.3551   -1.8177 H   0  0  0  0  0  0  0  0  0  0  0  0
    0.0531    1.9249   -2.0041 H   0  0  0  0  0  0  0  0  0  0  0  0
    1.5410    1.2994   -1.8728 H   0  0  0  0  0  0  0  0  0  0  0  0
   -1.5172   -0.5640    0.2759 H   0  0  0  0  0  0  0  0  0  0  0  0
   -0.7321    0.8511    0.9534 H   0  0  0  0  0  0  0  0  0  0  0  0
   -1.8071    2.3120   -0.7057 H   0  0  0  0  0  0  0  0  0  0  0  0
   -4.1729   -1.1860   -2.5587 H   0  0  0  0  0  0  0  0  0  0  0  0
   -2.9717   -1.4775   -1.3115 H   0  0  0  0  0  0  0  0  0  0  0  0
   -5.3152   -1.5202   -0.4587 H   0  0  0  0  0  0  0  0  0  0  0  0
   -5.5817    0.1276   -0.9875 H   0  0  0  0  0  0  0  0  0  0  0  0
   -5.1340   -0.0381    1.4435 H   0  0  0  0  0  0  0  0  0  0  0  0
   -3.5774   -0.7949    1.1606 H   0  0  0  0  0  0  0  0  0  0  0  0
  1  2  1  0
  2  3  1  0
  2  4  1  0
  4  5  1  0
  5  6  1  0
  5  7  1  0
  7  8  1  0
  8  9  1  0
  9 10  1  0
 10 11  1  0
 11 12  1  0
 12 13  1  0
 13  8  1  0
  1 14  1  0
  1 15  1  0
  1 16  1  0
  2 17  1  0
  3 18  1  0
  3 19  1  0
  3 20  1  0
  4 21  1  0
  4 22  1  0
  5 23  1  6
  6 24  1  0
  6 25  1  0
  7 26  1  0
  7 27  1  0
  8 28  1  0
 10 29  1  0
 10 30  1  0
 11 31  1  0
 11 32  1  0
 12 33  1  0
 12 34  1  0
M  END
