
     RDKit          3D

 38 39  0  0  0  0  0  0  0  0999 V2000
    0.1663    1.8448   -1.5393 C   0  0  0  0  0  0  0  0  0  0  0  0
   -0.4126    2.2614   -0.1835 C   0  0  0  0  0  0  0  0  0  0  0  0
   -1.1077    1.0808    0.5679 C   0  0  0  0  0  0  0  0  0  0  0  0
   -0.4522   -0.3217    0.6640 C   0  0  1  0  0  0  0  0  0  0  0  0
   -0.4641   -1.0005   -0.6429 N   0  0  0  0  0  0  0  0  0  0  0  0
    0.9478   -0.3423    1.3139 C   0  0  0  0  0  0  0  0  0  0  0  0
    1.4134   -1.7341    1.6932 C   0  0  0  0  0  0  0  0  0  0  0  0
    2.3328   -2.4198    0.8875 C   0  0  0  0  0  0  0  0  0  0  0  0
    2.7502   -3.7071    1.2285 C   0  0  0  0  0  0  0  0  0  0  0  0
    2.2535   -4.3205    2.3771 C   0  0  0  0  0  0  0  0  0  0  0  0
    1.3397   -3.6473    3.1859 C   0  0  0  0  0  0  0  0  0  0  0  0
    0.9207   -2.3600    2.8464 C   0  0  0  0  0  0  0  0  0  0  0  0
   -1.7582    3.5149   -0.4301 S   0  0  0  0  0  0  0  0  0  0  0  0
   -0.8676    4.8337   -1.3048 C   0  0  0  0  0  0  0  0  0  0  0  0
    0.5242    5.1640   -0.7801 C   0  0  0  0  0  0  0  0  0  0  0  0
    0.7701    4.7581    0.6597 C   0  0  0  0  0  0  0  0  0  0  0  0
    0.9261    2.9596    0.8906 S   0  0  0  0  0  0  0  0  0  0  0  0
   -0.6033    1.3904   -2.1745 H   0  0  0  0  0  0  0  0  0  0  0  0
    0.9751    1.1146   -1.4290 H   0  0  0  0  0  0  0  0  0  0  0  0
    0.5936    2.6775   -2.1046 H   0  0  0  0  0  0  0  0  0  0  0  0
   -2.0904    0.9040    0.1019 H   0  0  0  0  0  0  0  0  0  0  0  0
   -1.3449    1.3996    1.5946 H   0  0  0  0  0  0  0  0  0  0  0  0
   -1.1191   -0.9121    1.3080 H   0  0  0  0  0  0  0  0  0  0  0  0
   -0.0826   -1.9419   -0.5255 H   0  0  0  0  0  0  0  0  0  0  0  0
   -1.4290   -1.1345   -0.9456 H   0  0  0  0  0  0  0  0  0  0  0  0
    0.9402    0.2608    2.2305 H   0  0  0  0  0  0  0  0  0  0  0  0
    1.6924    0.1097    0.6485 H   0  0  0  0  0  0  0  0  0  0  0  0
    2.7269   -1.9529   -0.0129 H   0  0  0  0  0  0  0  0  0  0  0  0
    3.4645   -4.2301    0.5982 H   0  0  0  0  0  0  0  0  0  0  0  0
    2.5807   -5.3220    2.6432 H   0  0  0  0  0  0  0  0  0  0  0  0
    0.9547   -4.1242    4.0834 H   0  0  0  0  0  0  0  0  0  0  0  0
    0.2095   -1.8460    3.4890 H   0  0  0  0  0  0  0  0  0  0  0  0
   -0.8251    4.5974   -2.3734 H   0  0  0  0  0  0  0  0  0  0  0  0
   -1.4965    5.7274   -1.2204 H   0  0  0  0  0  0  0  0  0  0  0  0
    0.6733    6.2476   -0.8743 H   0  0  0  0  0  0  0  0  0  0  0  0
    1.2876    4.7193   -1.4306 H   0  0  0  0  0  0  0  0  0  0  0  0
    1.7147    5.1978    0.9982 H   0  0  0  0  0  0  0  0  0  0  0  0
   -0.0070    5.1481    1.3263 H   0  0  0  0  0  0  0  0  0  0  0  0
  1  2  1  0
  2  3  1  0
  3  4  1  0
  4  5  1  0
  4  6  1  0
  6  7  1  0
  7  8  2  0
  8  9  1  0
  9 10  2  0
 10 11  1  0
 11 12  2  0
  2 13  1  0
 13 14  1  0
 14 15  1  0
 15 16  1  0
 16 17  1  0
 17  2  1  0
 12  7  1  0
  1 18  1  0
  1 19  1  0
  1 20  1  0
  3 21  1  0
  3 22  1  0
  4 23  1  1
  5 24  1  0
  5 25  1  0
  6 26  1  0
  6 27  1  0
  8 28  1  0
  9 29  1  0
 10 30  1  0
 11 31  1  0
 12 32  1  0
 14 33  1  0
 14 34  1  0
 15 35  1  0
 15 36  1  0
 16 37  1  0
 16 38  1  0
M  END
