
     RDKit          3D

 17 16  0  0  0  0  0  0  0  0999 V2000
    1.7582   -2.0374   -1.5053 C   0  0  0  0  0  0  0  0  0  0  0  0
    0.2767   -2.3393   -1.3573 C   0  0  0  0  0  0  0  0  0  0  0  0
   -0.5597   -1.2086   -0.7407 C   0  0  0  0  0  0  0  0  0  0  0  0
   -0.3002   -0.9455    0.7542 C   0  0  2  0  0  0  0  0  0  0  0  0
   -1.4612   -0.2217    1.3086 N   0  0  0  0  0  0  0  0  0  0  0  0
    0.9487   -0.1744    0.9693 C   0  0  0  0  0  0  0  0  0  0  0  0
    1.9308    0.4151    1.1633 N   0  0  0  0  0  0  0  0  0  0  0  0
    2.2658   -2.0347   -0.5373 H   0  0  0  0  0  0  0  0  0  0  0  0
    2.2366   -2.8094   -2.1172 H   0  0  0  0  0  0  0  0  0  0  0  0
    1.9203   -1.0718   -1.9942 H   0  0  0  0  0  0  0  0  0  0  0  0
    0.1478   -3.2587   -0.7742 H   0  0  0  0  0  0  0  0  0  0  0  0
   -0.1263   -2.5465   -2.3567 H   0  0  0  0  0  0  0  0  0  0  0  0
   -0.4239   -0.2891   -1.3255 H   0  0  0  0  0  0  0  0  0  0  0  0
   -1.6104   -1.5033   -0.8721 H   0  0  0  0  0  0  0  0  0  0  0  0
   -0.2232   -1.9020    1.2846 H   0  0  0  0  0  0  0  0  0  0  0  0
   -2.2904   -0.8105    1.2479 H   0  0  0  0  0  0  0  0  0  0  0  0
   -1.3049   -0.0468    2.3018 H   0  0  0  0  0  0  0  0  0  0  0  0
  1  2  1  0
  2  3  1  0
  3  4  1  0
  4  5  1  0
  4  6  1  0
  6  7  3  0
  1  8  1  0
  1  9  1  0
  1 10  1  0
  2 11  1  0
  2 12  1  0
  3 13  1  0
  3 14  1  0
  4 15  1  1
  5 16  1  0
  5 17  1  0
M  END
