
     RDKit          3D

 19 18  0  0  0  0  0  0  0  0999 V2000
   -0.8476   -0.3754   -1.9813 C   0  0  0  0  0  0  0  0  0  0  0  0
   -0.8085    0.1143   -0.5276 C   0  0  0  0  0  0  0  0  0  0  0  0
   -1.9438   -0.5758    0.2441 C   0  0  0  0  0  0  0  0  0  0  0  0
    0.5816   -0.1196    0.1379 C   0  0  2  0  0  0  0  0  0  0  0  0
    0.5725    0.3645    1.5295 N   0  0  0  0  0  0  0  0  0  0  0  0
    1.7277    0.5518   -0.6555 C   0  0  0  0  0  0  0  0  0  0  0  0
    3.3376    0.2085    0.0427 Cl  0  0  0  0  0  0  0  0  0  0  0  0
   -1.8594   -0.2957   -2.3941 H   0  0  0  0  0  0  0  0  0  0  0  0
   -0.1992    0.2262   -2.6250 H   0  0  0  0  0  0  0  0  0  0  0  0
   -0.5345   -1.4222   -2.0551 H   0  0  0  0  0  0  0  0  0  0  0  0
   -1.0206    1.1921   -0.5370 H   0  0  0  0  0  0  0  0  0  0  0  0
   -2.0722   -0.1467    1.2424 H   0  0  0  0  0  0  0  0  0  0  0  0
   -2.8999   -0.4542   -0.2770 H   0  0  0  0  0  0  0  0  0  0  0  0
   -1.7526   -1.6488    0.3521 H   0  0  0  0  0  0  0  0  0  0  0  0
    0.7770   -1.1994    0.1668 H   0  0  0  0  0  0  0  0  0  0  0  0
    0.2431    1.3275    1.5713 H   0  0  0  0  0  0  0  0  0  0  0  0
   -0.0657   -0.1909    2.0959 H   0  0  0  0  0  0  0  0  0  0  0  0
    1.7717    0.1818   -1.6822 H   0  0  0  0  0  0  0  0  0  0  0  0
    1.6055    1.6395   -0.6852 H   0  0  0  0  0  0  0  0  0  0  0  0
  1  2  1  0
  2  3  1  0
  2  4  1  0
  4  5  1  0
  4  6  1  0
  6  7  1  0
  1  8  1  0
  1  9  1  0
  1 10  1  0
  2 11  1  0
  3 12  1  0
  3 13  1  0
  3 14  1  0
  4 15  1  1
  5 16  1  0
  5 17  1  0
  6 18  1  0
  6 19  1  0
M  END
