
     RDKit          3D

 27 27  0  0  0  0  0  0  0  0999 V2000
   -1.8354   -1.7006   -0.4856 N   0  0  0  0  0  0  0  0  0  0  0  0
   -0.4385   -1.1639   -0.5609 C   0  0  1  0  0  0  0  0  0  0  0  0
   -0.1756   -0.7936   -2.0414 C   0  0  0  0  0  0  0  0  0  0  0  0
    1.2857   -0.7378   -2.4229 C   0  0  0  0  0  0  0  0  0  0  0  0
    1.9146    0.4893   -2.6703 C   0  0  0  0  0  0  0  0  0  0  0  0
    3.2641    0.5343   -3.0242 C   0  0  0  0  0  0  0  0  0  0  0  0
    3.9966   -0.6456   -3.1386 C   0  0  0  0  0  0  0  0  0  0  0  0
    3.3804   -1.8722   -2.8998 C   0  0  0  0  0  0  0  0  0  0  0  0
    2.0315   -1.9191   -2.5446 C   0  0  0  0  0  0  0  0  0  0  0  0
   -0.1821    0.0612    0.3846 C   0  0  0  0  0  0  0  0  0  0  0  0
   -1.0475    1.0552    0.0153 F   0  0  0  0  0  0  0  0  0  0  0  0
    1.0614    0.5669    0.1793 F   0  0  0  0  0  0  0  0  0  0  0  0
   -0.3479   -0.1740    1.8681 C   0  0  0  0  0  0  0  0  0  0  0  0
   -0.3341   -1.3311    2.5467 C   0  0  0  0  0  0  0  0  0  0  0  0
   -2.4782   -0.9450   -0.7370 H   0  0  0  0  0  0  0  0  0  0  0  0
   -2.0566   -1.9176    0.4871 H   0  0  0  0  0  0  0  0  0  0  0  0
    0.2368   -1.9792   -0.2756 H   0  0  0  0  0  0  0  0  0  0  0  0
   -0.6698    0.1546   -2.2910 H   0  0  0  0  0  0  0  0  0  0  0  0
   -0.6393   -1.5414   -2.7011 H   0  0  0  0  0  0  0  0  0  0  0  0
    1.3602    1.4208   -2.5784 H   0  0  0  0  0  0  0  0  0  0  0  0
    3.7439    1.4920   -3.2079 H   0  0  0  0  0  0  0  0  0  0  0  0
    5.0470   -0.6086   -3.4142 H   0  0  0  0  0  0  0  0  0  0  0  0
    3.9498   -2.7931   -2.9925 H   0  0  0  0  0  0  0  0  0  0  0  0
    1.5626   -2.8850   -2.3693 H   0  0  0  0  0  0  0  0  0  0  0  0
   -0.4822    0.7476    2.4303 H   0  0  0  0  0  0  0  0  0  0  0  0
   -0.4581   -1.3355    3.6265 H   0  0  0  0  0  0  0  0  0  0  0  0
   -0.1792   -2.2922    2.0665 H   0  0  0  0  0  0  0  0  0  0  0  0
  1  2  1  0
  2  3  1  0
  3  4  1  0
  4  5  2  0
  5  6  1  0
  6  7  2  0
  7  8  1  0
  8  9  2  0
  2 10  1  0
 10 11  1  0
 10 12  1  0
 10 13  1  0
 13 14  2  3
  9  4  1  0
  1 15  1  0
  1 16  1  0
  2 17  1  1
  3 18  1  0
  3 19  1  0
  5 20  1  0
  6 21  1  0
  7 22  1  0
  8 23  1  0
  9 24  1  0
 13 25  1  0
 14 26  1  0
 14 27  1  0
M  END
