
     RDKit          3D

 31 31  0  0  0  0  0  0  0  0999 V2000
   -1.7289    3.3410   -2.0200 C   0  0  0  0  0  0  0  0  0  0  0  0
   -1.8461    2.0560   -1.2547 C   0  0  0  0  0  0  0  0  0  0  0  0
   -1.7942    2.0571    0.1440 C   0  0  0  0  0  0  0  0  0  0  0  0
   -1.8760    0.8580    0.8564 C   0  0  0  0  0  0  0  0  0  0  0  0
   -1.9945   -0.3586    0.1783 C   0  0  0  0  0  0  0  0  0  0  0  0
   -2.0435   -0.3636   -1.2184 C   0  0  0  0  0  0  0  0  0  0  0  0
   -1.9609    0.8357   -1.9307 C   0  0  0  0  0  0  0  0  0  0  0  0
   -2.0910   -1.9213    1.0825 S   0  0  0  0  0  4  0  0  0  0  0  0
   -2.3735   -1.5447    2.5089 O   0  0  0  0  0  0  0  0  0  0  0  0
   -0.3163   -2.3583    1.0034 C   0  0  0  0  0  0  0  0  0  0  0  0
   -0.0855   -3.6270    0.1704 C   0  0  1  0  0  0  0  0  0  0  0  0
   -0.3015   -3.3707   -1.2790 N   0  0  0  0  0  0  0  0  0  0  0  0
    1.2866   -4.2688    0.5154 C   0  0  0  0  0  0  0  0  0  0  0  0
    1.2461   -4.7160    1.8020 F   0  0  0  0  0  0  0  0  0  0  0  0
    1.4308   -5.3807   -0.2652 F   0  0  0  0  0  0  0  0  0  0  0  0
    2.4846   -3.3413    0.3325 C   0  0  0  0  0  0  0  0  0  0  0  0
    2.5092   -2.8198   -0.9227 F   0  0  0  0  0  0  0  0  0  0  0  0
    3.6516   -4.0182    0.4936 F   0  0  0  0  0  0  0  0  0  0  0  0
   -2.1544    4.1746   -1.4514 H   0  0  0  0  0  0  0  0  0  0  0  0
   -0.6767    3.5562   -2.2302 H   0  0  0  0  0  0  0  0  0  0  0  0
   -2.2747    3.2826   -2.9676 H   0  0  0  0  0  0  0  0  0  0  0  0
   -1.6976    2.9928    0.6907 H   0  0  0  0  0  0  0  0  0  0  0  0
   -1.8505    0.8807    1.9439 H   0  0  0  0  0  0  0  0  0  0  0  0
   -2.1486   -1.2981   -1.7648 H   0  0  0  0  0  0  0  0  0  0  0  0
   -1.9942    0.8111   -3.0179 H   0  0  0  0  0  0  0  0  0  0  0  0
    0.2681   -1.5113    0.6288 H   0  0  0  0  0  0  0  0  0  0  0  0
   -0.0078   -2.5324    2.0406 H   0  0  0  0  0  0  0  0  0  0  0  0
   -0.8447   -4.3672    0.4556 H   0  0  0  0  0  0  0  0  0  0  0  0
    0.4681   -2.8089   -1.6588 H   0  0  0  0  0  0  0  0  0  0  0  0
   -0.2291   -4.2645   -1.7777 H   0  0  0  0  0  0  0  0  0  0  0  0
    2.4806   -2.5188    1.0523 H   0  0  0  0  0  0  0  0  0  0  0  0
  1  2  1  0
  2  3  2  0
  3  4  1  0
  4  5  2  0
  5  6  1  0
  6  7  2  0
  5  8  1  0
  8  9  2  0
  8 10  1  1
 10 11  1  0
 11 12  1  0
 11 13  1  0
 13 14  1  0
 13 15  1  0
 13 16  1  0
 16 17  1  0
 16 18  1  0
  7  2  1  0
  1 19  1  0
  1 20  1  0
  1 21  1  0
  3 22  1  0
  4 23  1  0
  6 24  1  0
  7 25  1  0
 10 26  1  0
 10 27  1  0
 11 28  1  1
 12 29  1  0
 12 30  1  0
 16 31  1  0
M  END
