
     RDKit          3D

 31 31  0  0  0  0  0  0  0  0999 V2000
   -3.4694    2.0229    0.6208 C   0  0  0  0  0  0  0  0  0  0  0  0
   -1.9817    1.8657    0.5043 C   0  0  0  0  0  0  0  0  0  0  0  0
   -1.1769    1.8604    1.6491 C   0  0  0  0  0  0  0  0  0  0  0  0
    0.2114    1.7456    1.5388 C   0  0  0  0  0  0  0  0  0  0  0  0
    0.8123    1.6358    0.2806 C   0  0  0  0  0  0  0  0  0  0  0  0
    0.0127    1.6722   -0.8653 C   0  0  0  0  0  0  0  0  0  0  0  0
   -1.3751    1.7866   -0.7541 C   0  0  0  0  0  0  0  0  0  0  0  0
    2.6069    1.4782    0.1511 S   0  0  0  0  0  4  0  0  0  0  0  0
    2.9254    1.4104   -1.3147 O   0  0  0  0  0  0  0  0  0  0  0  0
    2.7886   -0.2071    0.8378 C   0  0  0  0  0  0  0  0  0  0  0  0
    2.1450   -1.3174   -0.0230 C   0  0  1  0  0  0  0  0  0  0  0  0
    2.8604   -1.4713   -1.3122 N   0  0  0  0  0  0  0  0  0  0  0  0
    2.0878   -2.6097    0.8265 C   0  0  0  0  0  0  0  0  0  0  0  0
    1.4571   -2.3102    2.0065 F   0  0  0  0  0  0  0  0  0  0  0  0
    3.3600   -2.9652    1.1769 F   0  0  0  0  0  0  0  0  0  0  0  0
    1.3608   -3.7711    0.1478 C   0  0  0  0  0  0  0  0  0  0  0  0
    1.9749   -4.2099   -0.9739 F   0  0  0  0  0  0  0  0  0  0  0  0
    0.0904   -3.4347   -0.1898 F   0  0  0  0  0  0  0  0  0  0  0  0
    1.2704   -4.8409    0.9815 F   0  0  0  0  0  0  0  0  0  0  0  0
   -3.9811    1.5189   -0.2059 H   0  0  0  0  0  0  0  0  0  0  0  0
   -3.8374    1.5763    1.5505 H   0  0  0  0  0  0  0  0  0  0  0  0
   -3.7356    3.0842    0.6079 H   0  0  0  0  0  0  0  0  0  0  0  0
   -1.6279    1.9498    2.6355 H   0  0  0  0  0  0  0  0  0  0  0  0
    0.8117    1.7516    2.4452 H   0  0  0  0  0  0  0  0  0  0  0  0
    0.4626    1.6109   -1.8544 H   0  0  0  0  0  0  0  0  0  0  0  0
   -1.9786    1.8151   -1.6592 H   0  0  0  0  0  0  0  0  0  0  0  0
    2.3707   -0.1843    1.8492 H   0  0  0  0  0  0  0  0  0  0  0  0
    3.8657   -0.3828    0.9435 H   0  0  0  0  0  0  0  0  0  0  0  0
    1.1115   -1.0414   -0.2568 H   0  0  0  0  0  0  0  0  0  0  0  0
    3.8477   -1.6845   -1.1496 H   0  0  0  0  0  0  0  0  0  0  0  0
    2.8787   -0.5529   -1.7842 H   0  0  0  0  0  0  0  0  0  0  0  0
  1  2  1  0
  2  3  2  0
  3  4  1  0
  4  5  2  0
  5  6  1  0
  6  7  2  0
  5  8  1  0
  8  9  2  0
  8 10  1  1
 10 11  1  0
 11 12  1  0
 11 13  1  0
 13 14  1  0
 13 15  1  0
 13 16  1  0
 16 17  1  0
 16 18  1  0
 16 19  1  0
  7  2  1  0
  1 20  1  0
  1 21  1  0
  1 22  1  0
  3 23  1  0
  4 24  1  0
  6 25  1  0
  7 26  1  0
 10 27  1  0
 10 28  1  0
 11 29  1  6
 12 30  1  0
 12 31  1  0
M  END
