
     RDKit          3D

 38 39  0  0  0  0  0  0  0  0999 V2000
   -4.5602   -0.5466   -1.1214 C   0  0  0  0  0  0  0  0  0  0  0  0
   -3.2540   -0.1392   -0.5066 C   0  0  0  0  0  0  0  0  0  0  0  0
   -2.8531    1.2012   -0.5205 C   0  0  0  0  0  0  0  0  0  0  0  0
   -1.6504    1.5869    0.0764 C   0  0  0  0  0  0  0  0  0  0  0  0
   -0.8309    0.6381    0.6941 C   0  0  0  0  0  0  0  0  0  0  0  0
   -1.2445   -0.6977    0.7366 C   0  0  0  0  0  0  0  0  0  0  0  0
   -2.4485   -1.0831    0.1403 C   0  0  0  0  0  0  0  0  0  0  0  0
    0.7209    1.1278    1.4783 S   0  0  0  0  0  4  0  0  0  0  0  0
    0.8264    2.6168    1.3514 O   0  0  0  0  0  0  0  0  0  0  0  0
    1.9205    0.3153    0.3236 C   0  0  2  0  0  0  0  0  0  0  0  0
    3.3705    0.4757    0.8636 C   0  0  1  0  0  0  0  0  0  0  0  0
    4.1593   -0.7898    0.6165 N   0  0  0  0  0  0  0  0  0  0  0  0
    4.0953    1.7604    0.3864 C   0  0  0  0  0  0  0  0  0  0  0  0
    4.3668    1.7585   -0.9340 F   0  0  0  0  0  0  0  0  0  0  0  0
    3.4292    2.8889    0.6853 F   0  0  0  0  0  0  0  0  0  0  0  0
    5.2979    1.8380    1.0242 F   0  0  0  0  0  0  0  0  0  0  0  0
    1.7196    0.5830   -1.1588 C   0  0  0  0  0  0  0  0  0  0  0  0
    1.8008   -0.4924   -2.0614 C   0  0  0  0  0  0  0  0  0  0  0  0
    1.6266   -0.2963   -3.4329 C   0  0  0  0  0  0  0  0  0  0  0  0
    1.3763    0.9798   -3.9277 C   0  0  0  0  0  0  0  0  0  0  0  0
    1.3073    2.0595   -3.0523 C   0  0  0  0  0  0  0  0  0  0  0  0
    1.4822    1.8643   -1.6801 C   0  0  0  0  0  0  0  0  0  0  0  0
   -5.3622   -0.4708   -0.3807 H   0  0  0  0  0  0  0  0  0  0  0  0
   -4.5141   -1.5770   -1.4894 H   0  0  0  0  0  0  0  0  0  0  0  0
   -4.8056    0.0924   -1.9762 H   0  0  0  0  0  0  0  0  0  0  0  0
   -3.4727    1.9570   -0.9982 H   0  0  0  0  0  0  0  0  0  0  0  0
   -1.3559    2.6340    0.0501 H   0  0  0  0  0  0  0  0  0  0  0  0
   -0.6427   -1.4521    1.2357 H   0  0  0  0  0  0  0  0  0  0  0  0
   -2.7553   -2.1259    0.1839 H   0  0  0  0  0  0  0  0  0  0  0  0
    1.6543   -0.7397    0.4844 H   0  0  0  0  0  0  0  0  0  0  0  0
    3.3312    0.5509    1.9585 H   0  0  0  0  0  0  0  0  0  0  0  0
    5.1490   -0.5929    0.7925 H   0  0  0  0  0  0  0  0  0  0  0  0
    3.8873   -1.5006    1.2952 H   0  0  0  0  0  0  0  0  0  0  0  0
    2.0091   -1.4987   -1.7027 H   0  0  0  0  0  0  0  0  0  0  0  0
    1.6922   -1.1398   -4.1148 H   0  0  0  0  0  0  0  0  0  0  0  0
    1.2432    1.1351   -4.9948 H   0  0  0  0  0  0  0  0  0  0  0  0
    1.1224    3.0598   -3.4354 H   0  0  0  0  0  0  0  0  0  0  0  0
    1.4329    2.7365   -1.0306 H   0  0  0  0  0  0  0  0  0  0  0  0
  1  2  1  0
  2  3  2  0
  3  4  1  0
  4  5  2  0
  5  6  1  0
  6  7  2  0
  8  5  1  6
  8  9  2  0
  8 10  1  0
 10 11  1  0
 11 12  1  0
 11 13  1  0
 13 14  1  0
 13 15  1  0
 13 16  1  0
 10 17  1  0
 17 18  2  0
 18 19  1  0
 19 20  2  0
 20 21  1  0
 21 22  2  0
  7  2  1  0
 22 17  1  0
  1 23  1  0
  1 24  1  0
  1 25  1  0
  3 26  1  0
  4 27  1  0
  6 28  1  0
  7 29  1  0
 10 30  1  6
 11 31  1  1
 12 32  1  0
 12 33  1  0
 18 34  1  0
 19 35  1  0
 20 36  1  0
 21 37  1  0
 22 38  1  0
M  END
