
     RDKit          3D

 30 30  0  0  0  0  0  0  0  0999 V2000
    0.6352    2.0050    0.1628 C   0  0  0  0  0  0  0  0  0  0  0  0
    2.1063    1.5765    0.1943 C   0  0  0  0  0  0  0  0  0  0  0  0
    2.8589    2.4184    1.2349 C   0  0  0  0  0  0  0  0  0  0  0  0
    2.8128    1.6249   -1.1906 C   0  0  2  0  0  0  0  0  0  0  0  0
    2.8474    3.0063   -1.7088 N   0  0  0  0  0  0  0  0  0  0  0  0
    2.2123    0.6791   -2.2604 C   0  0  0  0  0  0  0  0  0  0  0  0
    2.4071   -1.0990   -1.8622 S   0  0  0  0  0  0  0  0  0  0  0  0
    0.7453   -1.5133   -1.3677 C   0  0  0  0  0  0  0  0  0  0  0  0
   -0.3232   -1.4209   -2.2654 C   0  0  0  0  0  0  0  0  0  0  0  0
   -1.6163   -1.7583   -1.8596 C   0  0  0  0  0  0  0  0  0  0  0  0
   -1.8459   -2.2004   -0.5578 C   0  0  0  0  0  0  0  0  0  0  0  0
   -0.7827   -2.3130    0.3363 C   0  0  0  0  0  0  0  0  0  0  0  0
    0.5104   -1.9766   -0.0698 C   0  0  0  0  0  0  0  0  0  0  0  0
    0.5230    3.0555   -0.1238 H   0  0  0  0  0  0  0  0  0  0  0  0
    0.1830    1.8856    1.1538 H   0  0  0  0  0  0  0  0  0  0  0  0
    0.0507    1.3979   -0.5331 H   0  0  0  0  0  0  0  0  0  0  0  0
    2.1399    0.5440    0.5603 H   0  0  0  0  0  0  0  0  0  0  0  0
    2.4201    2.2818    2.2294 H   0  0  0  0  0  0  0  0  0  0  0  0
    2.8215    3.4872    0.9998 H   0  0  0  0  0  0  0  0  0  0  0  0
    3.9100    2.1167    1.2929 H   0  0  0  0  0  0  0  0  0  0  0  0
    3.8604    1.3326   -1.0382 H   0  0  0  0  0  0  0  0  0  0  0  0
    3.3837    3.0362   -2.5755 H   0  0  0  0  0  0  0  0  0  0  0  0
    1.9054    3.3159   -1.9442 H   0  0  0  0  0  0  0  0  0  0  0  0
    1.1689    0.9315   -2.4729 H   0  0  0  0  0  0  0  0  0  0  0  0
    2.7555    0.8241   -3.2023 H   0  0  0  0  0  0  0  0  0  0  0  0
   -0.1586   -1.0941   -3.2889 H   0  0  0  0  0  0  0  0  0  0  0  0
   -2.4428   -1.6826   -2.5614 H   0  0  0  0  0  0  0  0  0  0  0  0
   -2.8519   -2.4654   -0.2424 H   0  0  0  0  0  0  0  0  0  0  0  0
   -0.9580   -2.6666    1.3490 H   0  0  0  0  0  0  0  0  0  0  0  0
    1.3311   -2.0754    0.6369 H   0  0  0  0  0  0  0  0  0  0  0  0
  1  2  1  0
  2  3  1  0
  2  4  1  0
  4  5  1  0
  4  6  1  0
  6  7  1  0
  7  8  1  0
  8  9  2  0
  9 10  1  0
 10 11  2  0
 11 12  1  0
 12 13  2  0
 13  8  1  0
  1 14  1  0
  1 15  1  0
  1 16  1  0
  2 17  1  0
  3 18  1  0
  3 19  1  0
  3 20  1  0
  4 21  1  1
  5 22  1  0
  5 23  1  0
  6 24  1  0
  6 25  1  0
  9 26  1  0
 10 27  1  0
 11 28  1  0
 12 29  1  0
 13 30  1  0
M  END
