
     RDKit          3D

 31 30  0  0  0  0  0  0  0  0999 V2000
    1.3407    1.1380    1.3481 C   0  0  0  0  0  0  0  0  0  0  0  0
    2.0468   -0.0665    0.7395 C   0  0  0  0  0  0  0  0  0  0  0  0
    1.1366   -1.3008    0.4764 C   0  0  1  0  0  0  0  0  0  0  0  0
    0.7054   -1.8793    1.8283 C   0  0  0  0  0  0  0  0  0  0  0  0
   -0.0508   -1.0100   -0.5103 C   0  0  1  0  0  0  0  0  0  0  0  0
    0.5133   -0.4474   -1.7535 N   0  0  0  0  0  0  0  0  0  0  0  0
   -1.0156   -2.2057   -0.8921 C   0  0  0  0  0  0  0  0  0  0  0  0
   -0.2443   -3.4554   -1.3549 C   0  0  0  0  0  0  0  0  0  0  0  0
   -1.9627   -1.7746   -2.0474 C   0  0  0  0  0  0  0  0  0  0  0  0
   -1.9478   -2.5949    0.2766 C   0  0  0  0  0  0  0  0  0  0  0  0
    0.5862    1.5485    0.6715 H   0  0  0  0  0  0  0  0  0  0  0  0
    2.0679    1.9319    1.5485 H   0  0  0  0  0  0  0  0  0  0  0  0
    0.8570    0.8849    2.2958 H   0  0  0  0  0  0  0  0  0  0  0  0
    2.8617   -0.3642    1.4125 H   0  0  0  0  0  0  0  0  0  0  0  0
    2.5445    0.2418   -0.1870 H   0  0  0  0  0  0  0  0  0  0  0  0
    1.7906   -2.0504    0.0094 H   0  0  0  0  0  0  0  0  0  0  0  0
    1.5114   -1.8115    2.5678 H   0  0  0  0  0  0  0  0  0  0  0  0
   -0.1646   -1.3549    2.2351 H   0  0  0  0  0  0  0  0  0  0  0  0
    0.4763   -2.9439    1.7413 H   0  0  0  0  0  0  0  0  0  0  0  0
   -0.6812   -0.2278   -0.0692 H   0  0  0  0  0  0  0  0  0  0  0  0
    1.2605   -1.0480   -2.0987 H   0  0  0  0  0  0  0  0  0  0  0  0
    0.9323    0.4622   -1.5716 H   0  0  0  0  0  0  0  0  0  0  0  0
    0.3816   -3.8636   -0.5554 H   0  0  0  0  0  0  0  0  0  0  0  0
    0.4022   -3.2376   -2.2113 H   0  0  0  0  0  0  0  0  0  0  0  0
   -0.9343   -4.2506   -1.6607 H   0  0  0  0  0  0  0  0  0  0  0  0
   -2.5079   -0.8601   -1.7874 H   0  0  0  0  0  0  0  0  0  0  0  0
   -2.7049   -2.5523   -2.2646 H   0  0  0  0  0  0  0  0  0  0  0  0
   -1.4198   -1.5956   -2.9817 H   0  0  0  0  0  0  0  0  0  0  0  0
   -2.7730   -3.2287   -0.0709 H   0  0  0  0  0  0  0  0  0  0  0  0
   -1.4435   -3.1733    1.0506 H   0  0  0  0  0  0  0  0  0  0  0  0
   -2.3927   -1.7079    0.7406 H   0  0  0  0  0  0  0  0  0  0  0  0
  1  2  1  0
  2  3  1  0
  3  4  1  0
  3  5  1  0
  5  6  1  0
  5  7  1  0
  7  8  1  0
  7  9  1  0
  7 10  1  0
  1 11  1  0
  1 12  1  0
  1 13  1  0
  2 14  1  0
  2 15  1  0
  3 16  1  6
  4 17  1  0
  4 18  1  0
  4 19  1  0
  5 20  1  1
  6 21  1  0
  6 22  1  0
  8 23  1  0
  8 24  1  0
  8 25  1  0
  9 26  1  0
  9 27  1  0
  9 28  1  0
 10 29  1  0
 10 30  1  0
 10 31  1  0
M  END
