
     RDKit          3D

 38 38  0  0  0  0  0  0  0  0999 V2000
   -0.6099    1.1818   -0.2431 C   0  0  0  0  0  0  0  0  0  0  0  0
   -0.0681   -0.2524   -0.2389 C   0  0  2  0  0  0  0  0  0  0  0  0
   -1.2154   -1.2207   -0.6687 C   0  0  0  0  0  0  0  0  0  0  0  0
   -1.6742   -1.0552   -2.1023 C   0  0  0  0  0  0  0  0  0  0  0  0
   -0.8197   -1.3844   -3.1636 C   0  0  0  0  0  0  0  0  0  0  0  0
   -1.2418   -1.2367   -4.4857 C   0  0  0  0  0  0  0  0  0  0  0  0
   -2.5233   -0.7633   -4.7602 C   0  0  0  0  0  0  0  0  0  0  0  0
   -3.3844   -0.4405   -3.7132 C   0  0  0  0  0  0  0  0  0  0  0  0
   -2.9638   -0.5880   -2.3903 C   0  0  0  0  0  0  0  0  0  0  0  0
    0.5389   -0.7062    1.1388 C   0  0  1  0  0  0  0  0  0  0  0  0
    1.0527   -2.0744    0.9216 N   0  0  0  0  0  0  0  0  0  0  0  0
    1.6426    0.2006    1.8233 C   0  0  0  0  0  0  0  0  0  0  0  0
    2.7660    0.5956    0.8469 C   0  0  0  0  0  0  0  0  0  0  0  0
    1.0317    1.4803    2.4389 C   0  0  0  0  0  0  0  0  0  0  0  0
    2.2988   -0.5484    3.0166 C   0  0  0  0  0  0  0  0  0  0  0  0
    0.2038    1.9096   -0.2405 H   0  0  0  0  0  0  0  0  0  0  0  0
   -1.1840    1.4018   -1.1482 H   0  0  0  0  0  0  0  0  0  0  0  0
   -1.2645    1.3633    0.6152 H   0  0  0  0  0  0  0  0  0  0  0  0
    0.7264   -0.3004   -0.9960 H   0  0  0  0  0  0  0  0  0  0  0  0
   -2.0673   -1.0928    0.0125 H   0  0  0  0  0  0  0  0  0  0  0  0
   -0.9138   -2.2698   -0.5657 H   0  0  0  0  0  0  0  0  0  0  0  0
    0.1797   -1.7636   -2.9625 H   0  0  0  0  0  0  0  0  0  0  0  0
   -0.5711   -1.4945   -5.3008 H   0  0  0  0  0  0  0  0  0  0  0  0
   -2.8521   -0.6495   -5.7896 H   0  0  0  0  0  0  0  0  0  0  0  0
   -4.3853   -0.0749   -3.9261 H   0  0  0  0  0  0  0  0  0  0  0  0
   -3.6482   -0.3329   -1.5848 H   0  0  0  0  0  0  0  0  0  0  0  0
   -0.2951   -0.7985    1.8478 H   0  0  0  0  0  0  0  0  0  0  0  0
    1.2616   -2.5213    1.8123 H   0  0  0  0  0  0  0  0  0  0  0  0
    1.9255   -2.0429    0.3976 H   0  0  0  0  0  0  0  0  0  0  0  0
    3.2707   -0.2832    0.4329 H   0  0  0  0  0  0  0  0  0  0  0  0
    3.5286    1.2000    1.3524 H   0  0  0  0  0  0  0  0  0  0  0  0
    2.3894    1.1899    0.0096 H   0  0  0  0  0  0  0  0  0  0  0  0
    0.1332    1.2485    3.0212 H   0  0  0  0  0  0  0  0  0  0  0  0
    1.7413    1.9699    3.1173 H   0  0  0  0  0  0  0  0  0  0  0  0
    0.7741    2.2353    1.6966 H   0  0  0  0  0  0  0  0  0  0  0  0
    2.9757    0.1085    3.5761 H   0  0  0  0  0  0  0  0  0  0  0  0
    1.5393   -0.9141    3.7168 H   0  0  0  0  0  0  0  0  0  0  0  0
    2.9031   -1.4003    2.6867 H   0  0  0  0  0  0  0  0  0  0  0  0
  1  2  1  0
  2  3  1  0
  3  4  1  0
  4  5  2  0
  5  6  1  0
  6  7  2  0
  7  8  1  0
  8  9  2  0
  2 10  1  0
 10 11  1  0
 10 12  1  0
 12 13  1  0
 12 14  1  0
 12 15  1  0
  9  4  1  0
  1 16  1  0
  1 17  1  0
  1 18  1  0
  2 19  1  6
  3 20  1  0
  3 21  1  0
  5 22  1  0
  6 23  1  0
  7 24  1  0
  8 25  1  0
  9 26  1  0
 10 27  1  1
 11 28  1  0
 11 29  1  0
 13 30  1  0
 13 31  1  0
 13 32  1  0
 14 33  1  0
 14 34  1  0
 14 35  1  0
 15 36  1  0
 15 37  1  0
 15 38  1  0
M  END
