
     RDKit          3D

 43 42  0  0  0  0  0  0  0  0999 V2000
    1.4145    0.2262   -2.8730 C   0  0  0  0  0  0  0  0  0  0  0  0
    0.8356   -0.8412   -1.9398 C   0  0  0  0  0  0  0  0  0  0  0  0
    1.9170   -1.3910   -1.0122 C   0  0  0  0  0  0  0  0  0  0  0  0
   -0.5240   -0.4500   -1.2603 C   0  0  1  0  0  0  0  0  0  0  0  0
   -1.1828   -1.6813   -0.5467 C   0  0  1  0  0  0  0  0  0  0  0  0
   -0.8248   -1.9151    0.9192 C   0  0  0  0  0  0  0  0  0  0  0  0
   -2.6458   -1.6232   -0.6536 N   0  0  0  0  0  0  0  0  0  0  0  0
   -0.7487    1.3196   -0.4195 Si  0  0  0  0  0  4  0  0  0  0  0  0
   -2.4527    1.4318    0.4230 C   0  0  0  0  0  0  0  0  0  0  0  0
   -0.7821    2.6380   -1.8041 C   0  0  0  0  0  0  0  0  0  0  0  0
    0.6317    1.9607    0.9579 C   0  0  0  0  0  0  0  0  0  0  0  0
    1.9866    2.2705    0.2915 C   0  0  0  0  0  0  0  0  0  0  0  0
    0.8185    0.9300    2.0845 C   0  0  0  0  0  0  0  0  0  0  0  0
    0.1096    3.2773    1.5943 C   0  0  0  0  0  0  0  0  0  0  0  0
    0.6521    0.5997   -3.5643 H   0  0  0  0  0  0  0  0  0  0  0  0
    1.8394    1.0701   -2.3272 H   0  0  0  0  0  0  0  0  0  0  0  0
    2.2202   -0.1987   -3.4828 H   0  0  0  0  0  0  0  0  0  0  0  0
    0.5899   -1.6791   -2.6108 H   0  0  0  0  0  0  0  0  0  0  0  0
    2.1285   -0.7251   -0.1782 H   0  0  0  0  0  0  0  0  0  0  0  0
    2.8547   -1.5484   -1.5571 H   0  0  0  0  0  0  0  0  0  0  0  0
    1.6283   -2.3658   -0.6084 H   0  0  0  0  0  0  0  0  0  0  0  0
   -1.1683   -0.2712   -2.1378 H   0  0  0  0  0  0  0  0  0  0  0  0
   -0.8841   -2.5837   -1.0957 H   0  0  0  0  0  0  0  0  0  0  0  0
   -1.2343   -1.1453    1.5776 H   0  0  0  0  0  0  0  0  0  0  0  0
   -1.2354   -2.8729    1.2621 H   0  0  0  0  0  0  0  0  0  0  0  0
    0.2532   -1.9642    1.0774 H   0  0  0  0  0  0  0  0  0  0  0  0
   -2.9183   -1.6151   -1.6359 H   0  0  0  0  0  0  0  0  0  0  0  0
   -3.0551   -2.4671   -0.2537 H   0  0  0  0  0  0  0  0  0  0  0  0
   -2.4963    0.7949    1.3093 H   0  0  0  0  0  0  0  0  0  0  0  0
   -2.6554    2.4624    0.7281 H   0  0  0  0  0  0  0  0  0  0  0  0
   -3.2389    1.1296   -0.2742 H   0  0  0  0  0  0  0  0  0  0  0  0
   -1.4783    2.3312   -2.5899 H   0  0  0  0  0  0  0  0  0  0  0  0
   -1.1179    3.5961   -1.3976 H   0  0  0  0  0  0  0  0  0  0  0  0
    0.2073    2.7770   -2.2441 H   0  0  0  0  0  0  0  0  0  0  0  0
    2.6994    2.6632    1.0265 H   0  0  0  0  0  0  0  0  0  0  0  0
    1.8882    3.0232   -0.4981 H   0  0  0  0  0  0  0  0  0  0  0  0
    2.4434    1.3836   -0.1490 H   0  0  0  0  0  0  0  0  0  0  0  0
    1.5114    1.3073    2.8459 H   0  0  0  0  0  0  0  0  0  0  0  0
   -0.1279    0.7070    2.5888 H   0  0  0  0  0  0  0  0  0  0  0  0
    1.2346   -0.0080    1.7129 H   0  0  0  0  0  0  0  0  0  0  0  0
   -0.0644    4.0522    0.8394 H   0  0  0  0  0  0  0  0  0  0  0  0
   -0.8280    3.1212    2.1389 H   0  0  0  0  0  0  0  0  0  0  0  0
    0.8359    3.6771    2.3120 H   0  0  0  0  0  0  0  0  0  0  0  0
  1  2  1  0
  2  3  1  0
  2  4  1  0
  4  5  1  0
  5  6  1  0
  5  7  1  0
  4  8  1  0
  8  9  1  0
  8 10  1  0
  8 11  1  0
 11 12  1  0
 11 13  1  0
 11 14  1  0
  1 15  1  0
  1 16  1  0
  1 17  1  0
  2 18  1  0
  3 19  1  0
  3 20  1  0
  3 21  1  0
  4 22  1  6
  5 23  1  6
  6 24  1  0
  6 25  1  0
  6 26  1  0
  7 27  1  0
  7 28  1  0
  9 29  1  0
  9 30  1  0
  9 31  1  0
 10 32  1  0
 10 33  1  0
 10 34  1  0
 12 35  1  0
 12 36  1  0
 12 37  1  0
 13 38  1  0
 13 39  1  0
 13 40  1  0
 14 41  1  0
 14 42  1  0
 14 43  1  0
M  END
