
     RDKit          3D

 26 25  0  0  0  0  0  0  0  0999 V2000
    0.2515   -1.1715    1.8573 C   0  0  0  0  0  0  0  0  0  0  0  0
    0.7872   -0.9333    0.4418 C   0  0  0  0  0  0  0  0  0  0  0  0
    1.2462   -2.2603   -0.1634 C   0  0  0  0  0  0  0  0  0  0  0  0
   -0.2950   -0.2346   -0.4101 C   0  0  0  0  0  0  0  0  0  0  0  0
    0.1002    0.1043   -1.8637 C   0  0  2  0  0  0  0  0  0  0  0  0
    1.2514    1.0226   -1.9148 N   0  0  0  0  0  0  0  0  0  0  0  0
   -1.0926    0.6666   -2.6592 C   0  0  0  0  0  0  0  0  0  0  0  0
   -1.7455    1.8928   -2.0554 C   0  0  0  0  0  0  0  0  0  0  0  0
   -0.9090    2.9449   -1.8292 N   0  0  0  0  0  0  0  0  0  0  0  0
   -2.9469    1.9711   -1.8253 O   0  0  0  0  0  0  0  0  0  0  0  0
   -0.6189   -1.8364    1.8469 H   0  0  0  0  0  0  0  0  0  0  0  0
    1.0186   -1.6277    2.4922 H   0  0  0  0  0  0  0  0  0  0  0  0
   -0.0477   -0.2272    2.3243 H   0  0  0  0  0  0  0  0  0  0  0  0
    1.6594   -0.2751    0.5317 H   0  0  0  0  0  0  0  0  0  0  0  0
    0.3982   -2.9302   -0.3407 H   0  0  0  0  0  0  0  0  0  0  0  0
    1.7660   -2.1066   -1.1137 H   0  0  0  0  0  0  0  0  0  0  0  0
    1.9457   -2.7716    0.5068 H   0  0  0  0  0  0  0  0  0  0  0  0
   -1.1883   -0.8736   -0.4343 H   0  0  0  0  0  0  0  0  0  0  0  0
   -0.5935    0.6856    0.1094 H   0  0  0  0  0  0  0  0  0  0  0  0
    0.4011   -0.8199   -2.3705 H   0  0  0  0  0  0  0  0  0  0  0  0
    2.0475    0.5892   -1.4434 H   0  0  0  0  0  0  0  0  0  0  0  0
    1.5478    1.1256   -2.8883 H   0  0  0  0  0  0  0  0  0  0  0  0
   -0.7904    0.9143   -3.6845 H   0  0  0  0  0  0  0  0  0  0  0  0
   -1.8639   -0.1099   -2.7395 H   0  0  0  0  0  0  0  0  0  0  0  0
   -1.2932    3.7188   -1.3048 H   0  0  0  0  0  0  0  0  0  0  0  0
    0.0788    2.7293   -1.6953 H   0  0  0  0  0  0  0  0  0  0  0  0
  1  2  1  0
  2  3  1  0
  2  4  1  0
  4  5  1  0
  5  6  1  0
  5  7  1  0
  7  8  1  0
  8  9  1  0
  8 10  2  0
  1 11  1  0
  1 12  1  0
  1 13  1  0
  2 14  1  0
  3 15  1  0
  3 16  1  0
  3 17  1  0
  4 18  1  0
  4 19  1  0
  5 20  1  6
  6 21  1  0
  6 22  1  0
  7 23  1  0
  7 24  1  0
  9 25  1  0
  9 26  1  0
M  END
