
     RDKit          3D

 28 28  0  0  0  0  0  0  0  0999 V2000
   -0.2014    3.8418    3.3649 C   0  0  0  0  0  0  0  0  0  0  0  0
   -0.3004    2.9222    2.1836 C   0  0  0  0  0  0  0  0  0  0  0  0
   -1.4101    2.0827    2.0312 C   0  0  0  0  0  0  0  0  0  0  0  0
   -1.5211    1.2512    0.9140 C   0  0  0  0  0  0  0  0  0  0  0  0
   -0.5260    1.2529   -0.0668 C   0  0  0  0  0  0  0  0  0  0  0  0
    0.5724    2.1075    0.0697 C   0  0  0  0  0  0  0  0  0  0  0  0
    0.6828    2.9389    1.1873 C   0  0  0  0  0  0  0  0  0  0  0  0
   -0.6450    0.1833   -1.5195 S   0  0  0  0  0  4  0  0  0  0  0  0
   -2.0363   -0.3841   -1.4943 O   0  0  0  0  0  0  0  0  0  0  0  0
    0.4662   -1.1305   -0.9139 C   0  0  0  0  0  0  0  0  0  0  0  0
    0.7694   -2.1943   -1.9747 C   0  0  2  0  0  0  0  0  0  0  0  0
    1.6090   -1.6533   -3.0667 N   0  0  0  0  0  0  0  0  0  0  0  0
   -0.4856   -2.8891   -2.5253 C   0  0  0  0  0  0  0  0  0  0  0  0
   -0.0818   -3.9644   -3.2669 F   0  0  0  0  0  0  0  0  0  0  0  0
    0.8452    4.0287    3.6275 H   0  0  0  0  0  0  0  0  0  0  0  0
   -0.6854    4.7965    3.1374 H   0  0  0  0  0  0  0  0  0  0  0  0
   -0.6827    3.4010    4.2443 H   0  0  0  0  0  0  0  0  0  0  0  0
   -2.2000    2.0729    2.7793 H   0  0  0  0  0  0  0  0  0  0  0  0
   -2.3930    0.6084    0.8117 H   0  0  0  0  0  0  0  0  0  0  0  0
    1.3458    2.1407   -0.6939 H   0  0  0  0  0  0  0  0  0  0  0  0
    1.5393    3.6043    1.2735 H   0  0  0  0  0  0  0  0  0  0  0  0
   -0.0096   -1.5946   -0.0425 H   0  0  0  0  0  0  0  0  0  0  0  0
    1.4009   -0.6675   -0.5779 H   0  0  0  0  0  0  0  0  0  0  0  0
    1.3735   -2.9752   -1.4948 H   0  0  0  0  0  0  0  0  0  0  0  0
    1.6598   -2.3611   -3.8058 H   0  0  0  0  0  0  0  0  0  0  0  0
    2.5662   -1.5320   -2.7365 H   0  0  0  0  0  0  0  0  0  0  0  0
   -1.0746   -2.2451   -3.1840 H   0  0  0  0  0  0  0  0  0  0  0  0
   -1.1220   -3.2649   -1.7189 H   0  0  0  0  0  0  0  0  0  0  0  0
  1  2  1  0
  2  3  2  0
  3  4  1  0
  4  5  2  0
  5  6  1  0
  6  7  2  0
  5  8  1  0
  8  9  2  0
  8 10  1  1
 10 11  1  0
 11 12  1  0
 11 13  1  0
 13 14  1  0
  7  2  1  0
  1 15  1  0
  1 16  1  0
  1 17  1  0
  3 18  1  0
  4 19  1  0
  6 20  1  0
  7 21  1  0
 10 22  1  0
 10 23  1  0
 11 24  1  1
 12 25  1  0
 12 26  1  0
 13 27  1  0
 13 28  1  0
M  END
