
     RDKit          3D

 30 29  0  0  0  0  0  0  0  0999 V2000
   -1.8381    2.5073   -3.1658 C   0  0  0  0  0  0  0  0  0  0  0  0
   -1.8343    2.4184   -1.6411 C   0  0  2  0  0  0  0  0  0  0  0  0
   -1.8287    3.7814   -1.0999 N   0  0  0  0  0  0  0  0  0  0  0  0
   -0.6297    1.6382   -1.0844 C   0  0  0  0  0  0  0  0  0  0  0  0
   -0.6091    0.1687   -1.5195 C   0  0  0  0  0  0  0  0  0  0  0  0
    0.5430   -0.6297   -0.8941 C   0  0  0  0  0  0  0  0  0  0  0  0
    0.1294   -1.5279    0.2771 C   0  0  0  0  0  0  0  0  0  0  0  0
   -0.3266   -0.8333    1.5644 C   0  0  0  0  0  0  0  0  0  0  0  0
    0.8076   -0.3047    2.4472 C   0  0  0  0  0  0  0  0  0  0  0  0
    1.4813    0.8555    1.8829 N   0  0  0  0  0  0  0  0  0  0  0  0
   -0.9018    2.9300   -3.5470 H   0  0  0  0  0  0  0  0  0  0  0  0
   -2.6617    3.1384   -3.5194 H   0  0  0  0  0  0  0  0  0  0  0  0
   -1.9758    1.5209   -3.6195 H   0  0  0  0  0  0  0  0  0  0  0  0
   -2.7613    1.9319   -1.3162 H   0  0  0  0  0  0  0  0  0  0  0  0
   -0.9705    4.2565   -1.3787 H   0  0  0  0  0  0  0  0  0  0  0  0
   -1.8129    3.7451   -0.0818 H   0  0  0  0  0  0  0  0  0  0  0  0
    0.3056    2.1196   -1.3992 H   0  0  0  0  0  0  0  0  0  0  0  0
   -0.6552    1.6912    0.0086 H   0  0  0  0  0  0  0  0  0  0  0  0
   -1.5726   -0.3066   -1.3022 H   0  0  0  0  0  0  0  0  0  0  0  0
   -0.4800    0.1331   -2.6078 H   0  0  0  0  0  0  0  0  0  0  0  0
    1.3786    0.0225   -0.6239 H   0  0  0  0  0  0  0  0  0  0  0  0
    0.9332   -1.2993   -1.6726 H   0  0  0  0  0  0  0  0  0  0  0  0
    0.9638   -2.2007    0.5123 H   0  0  0  0  0  0  0  0  0  0  0  0
   -0.6876   -2.1762   -0.0660 H   0  0  0  0  0  0  0  0  0  0  0  0
   -1.0565   -0.0461    1.3518 H   0  0  0  0  0  0  0  0  0  0  0  0
   -0.8664   -1.5818    2.1600 H   0  0  0  0  0  0  0  0  0  0  0  0
    0.3965   -0.0269    3.4244 H   0  0  0  0  0  0  0  0  0  0  0  0
    1.5426   -1.0979    2.6227 H   0  0  0  0  0  0  0  0  0  0  0  0
    0.8237    1.6300    1.8109 H   0  0  0  0  0  0  0  0  0  0  0  0
    2.2130    1.1643    2.5221 H   0  0  0  0  0  0  0  0  0  0  0  0
  1  2  1  0
  2  3  1  0
  2  4  1  0
  4  5  1  0
  5  6  1  0
  6  7  1  0
  7  8  1  0
  8  9  1  0
  9 10  1  0
  1 11  1  0
  1 12  1  0
  1 13  1  0
  2 14  1  1
  3 15  1  0
  3 16  1  0
  4 17  1  0
  4 18  1  0
  5 19  1  0
  5 20  1  0
  6 21  1  0
  6 22  1  0
  7 23  1  0
  7 24  1  0
  8 25  1  0
  8 26  1  0
  9 27  1  0
  9 28  1  0
 10 29  1  0
 10 30  1  0
M  END
