
     RDKit          3D

 34 34  0  0  0  0  0  0  0  0999 V2000
   -2.0158   -1.4271    4.1063 C   0  0  0  0  0  0  0  0  0  0  0  0
   -2.6160   -0.1729    3.5218 C   0  0  0  0  0  0  0  0  0  0  0  0
   -3.6254    0.4897    4.4194 C   0  0  0  0  0  0  0  0  0  0  0  0
   -2.2287    0.2528    2.3028 C   0  0  0  0  0  0  0  0  0  0  0  0
   -2.7054    1.4194    1.5938 C   0  0  0  0  0  0  0  0  0  0  0  0
   -2.2962    1.8502    0.3869 C   0  0  0  0  0  0  0  0  0  0  0  0
   -1.2375    1.3255   -0.5540 C   0  0  1  0  0  0  0  0  0  0  0  0
   -0.0148    0.9319    0.1501 N   0  0  0  0  0  0  0  0  0  0  0  0
   -1.8027    0.1832   -1.4299 C   0  0  0  0  0  0  0  0  0  0  0  0
   -0.9100   -0.1780   -2.5978 C   0  0  0  0  0  0  0  0  0  0  0  0
   -0.0421   -1.2752   -2.5148 C   0  0  0  0  0  0  0  0  0  0  0  0
    0.7938   -1.5984   -3.5845 C   0  0  0  0  0  0  0  0  0  0  0  0
    0.7705   -0.8284   -4.7457 C   0  0  0  0  0  0  0  0  0  0  0  0
   -0.0882    0.2655   -4.8385 C   0  0  0  0  0  0  0  0  0  0  0  0
   -0.9247    0.5909   -3.7696 C   0  0  0  0  0  0  0  0  0  0  0  0
   -1.5040   -1.1993    5.0471 H   0  0  0  0  0  0  0  0  0  0  0  0
   -2.8003   -2.1644    4.3061 H   0  0  0  0  0  0  0  0  0  0  0  0
   -1.2856   -1.8937    3.4365 H   0  0  0  0  0  0  0  0  0  0  0  0
   -4.4658   -0.1883    4.6021 H   0  0  0  0  0  0  0  0  0  0  0  0
   -3.1658    0.7339    5.3832 H   0  0  0  0  0  0  0  0  0  0  0  0
   -4.0359    1.4171    4.0158 H   0  0  0  0  0  0  0  0  0  0  0  0
   -1.4823   -0.3397    1.7753 H   0  0  0  0  0  0  0  0  0  0  0  0
   -3.4967    1.9932    2.0687 H   0  0  0  0  0  0  0  0  0  0  0  0
   -2.8145    2.7268   -0.0035 H   0  0  0  0  0  0  0  0  0  0  0  0
   -0.9602    2.1639   -1.2073 H   0  0  0  0  0  0  0  0  0  0  0  0
    0.7024    0.7138   -0.5415 H   0  0  0  0  0  0  0  0  0  0  0  0
    0.3304    1.7322    0.6769 H   0  0  0  0  0  0  0  0  0  0  0  0
   -2.7852    0.4688   -1.8311 H   0  0  0  0  0  0  0  0  0  0  0  0
   -1.9885   -0.7117   -0.8203 H   0  0  0  0  0  0  0  0  0  0  0  0
   -0.0116   -1.8817   -1.6116 H   0  0  0  0  0  0  0  0  0  0  0  0
    1.4625   -2.4520   -3.5110 H   0  0  0  0  0  0  0  0  0  0  0  0
    1.4204   -1.0819   -5.5789 H   0  0  0  0  0  0  0  0  0  0  0  0
   -0.1077    0.8646   -5.7451 H   0  0  0  0  0  0  0  0  0  0  0  0
   -1.5905    1.4462   -3.8580 H   0  0  0  0  0  0  0  0  0  0  0  0
  1  2  1  0
  2  3  1  0
  2  4  2  0
  4  5  1  0
  5  6  2  0
  6  7  1  0
  7  8  1  0
  7  9  1  0
  9 10  1  0
 10 11  2  0
 11 12  1  0
 12 13  2  0
 13 14  1  0
 14 15  2  0
 15 10  1  0
  1 16  1  0
  1 17  1  0
  1 18  1  0
  3 19  1  0
  3 20  1  0
  3 21  1  0
  4 22  1  0
  5 23  1  0
  6 24  1  0
  7 25  1  6
  8 26  1  0
  8 27  1  0
  9 28  1  0
  9 29  1  0
 11 30  1  0
 12 31  1  0
 13 32  1  0
 14 33  1  0
 15 34  1  0
M  END
