
     RDKit          3D

 37 38  0  0  0  0  0  0  0  0999 V2000
    3.8881   -4.1401   -0.5313 C   0  0  0  0  0  0  0  0  0  0  0  0
    3.2084   -2.8464   -0.1927 C   0  0  0  0  0  0  0  0  0  0  0  0
    2.8641   -1.9407   -1.2033 C   0  0  0  0  0  0  0  0  0  0  0  0
    2.2040   -0.7495   -0.8914 C   0  0  0  0  0  0  0  0  0  0  0  0
    1.8706   -0.4556    0.4339 C   0  0  0  0  0  0  0  0  0  0  0  0
    1.1694    0.7836    0.7651 C   0  0  0  0  0  0  0  0  0  0  0  0
   -0.1498    0.9795    0.6055 C   0  0  0  0  0  0  0  0  0  0  0  0
   -1.1652   -0.0038    0.0880 C   0  0  1  0  0  0  0  0  0  0  0  0
   -2.2612   -0.0937    1.0615 N   0  0  0  0  0  0  0  0  0  0  0  0
   -1.6657    0.3377   -1.3391 C   0  0  0  0  0  0  0  0  0  0  0  0
   -2.1804    1.7429   -1.5681 C   0  0  0  0  0  0  0  0  0  0  0  0
   -3.4445    2.1295   -1.1045 C   0  0  0  0  0  0  0  0  0  0  0  0
   -3.9140    3.4264   -1.3200 C   0  0  0  0  0  0  0  0  0  0  0  0
   -3.1253    4.3505   -2.0020 C   0  0  0  0  0  0  0  0  0  0  0  0
   -1.8656    3.9792   -2.4671 C   0  0  0  0  0  0  0  0  0  0  0  0
   -1.3949    2.6827   -2.2515 C   0  0  0  0  0  0  0  0  0  0  0  0
    2.2005   -1.3624    1.4440 C   0  0  0  0  0  0  0  0  0  0  0  0
    2.8607   -2.5536    1.1316 C   0  0  0  0  0  0  0  0  0  0  0  0
    3.1407   -4.9130   -0.7351 H   0  0  0  0  0  0  0  0  0  0  0  0
    4.5267   -4.4734    0.2935 H   0  0  0  0  0  0  0  0  0  0  0  0
    4.5289   -4.0259   -1.4119 H   0  0  0  0  0  0  0  0  0  0  0  0
    3.1102   -2.1554   -2.2407 H   0  0  0  0  0  0  0  0  0  0  0  0
    1.9517   -0.0540   -1.6881 H   0  0  0  0  0  0  0  0  0  0  0  0
    1.7910    1.5811    1.1648 H   0  0  0  0  0  0  0  0  0  0  0  0
   -0.5483    1.9570    0.8785 H   0  0  0  0  0  0  0  0  0  0  0  0
   -0.7279   -1.0079    0.0343 H   0  0  0  0  0  0  0  0  0  0  0  0
   -1.8743   -0.4197    1.9464 H   0  0  0  0  0  0  0  0  0  0  0  0
   -2.9127   -0.8145    0.7579 H   0  0  0  0  0  0  0  0  0  0  0  0
   -0.8467    0.1457   -2.0462 H   0  0  0  0  0  0  0  0  0  0  0  0
   -2.4558   -0.3689   -1.6293 H   0  0  0  0  0  0  0  0  0  0  0  0
   -4.0681    1.4226   -0.5621 H   0  0  0  0  0  0  0  0  0  0  0  0
   -4.8943    3.7148   -0.9506 H   0  0  0  0  0  0  0  0  0  0  0  0
   -3.4910    5.3601   -2.1674 H   0  0  0  0  0  0  0  0  0  0  0  0
   -1.2477    4.6996   -2.9959 H   0  0  0  0  0  0  0  0  0  0  0  0
   -0.4071    2.4114   -2.6164 H   0  0  0  0  0  0  0  0  0  0  0  0
    1.9411   -1.1504    2.4784 H   0  0  0  0  0  0  0  0  0  0  0  0
    3.1030   -3.2510    1.9303 H   0  0  0  0  0  0  0  0  0  0  0  0
  1  2  1  0
  2  3  2  0
  3  4  1  0
  4  5  2  0
  5  6  1  0
  6  7  2  0
  7  8  1  0
  8  9  1  0
  8 10  1  0
 10 11  1  0
 11 12  2  0
 12 13  1  0
 13 14  2  0
 14 15  1  0
 15 16  2  0
  5 17  1  0
 17 18  2  0
 18  2  1  0
 16 11  1  0
  1 19  1  0
  1 20  1  0
  1 21  1  0
  3 22  1  0
  4 23  1  0
  6 24  1  0
  7 25  1  0
  8 26  1  6
  9 27  1  0
  9 28  1  0
 10 29  1  0
 10 30  1  0
 12 31  1  0
 13 32  1  0
 14 33  1  0
 15 34  1  0
 16 35  1  0
 17 36  1  0
 18 37  1  0
M  END
