
     RDKit          3D

 28 27  0  0  0  0  0  0  0  0999 V2000
    1.6501    0.0662    1.3524 C   0  0  0  0  0  0  0  0  0  0  0  0
    1.0176    1.0606    0.3787 C   0  0  0  0  0  0  0  0  0  0  0  0
    1.7483    2.4051    0.4778 C   0  0  0  0  0  0  0  0  0  0  0  0
   -0.4846    1.2694    0.6426 C   0  0  0  0  0  0  0  0  0  0  0  0
   -1.4039    0.0277    0.5798 C   0  0  1  0  0  0  0  0  0  0  0  0
   -2.7418    0.4868    1.0031 N   0  0  0  0  0  0  0  0  0  0  0  0
   -1.5585   -0.6838   -0.7937 C   0  0  0  0  0  0  0  0  0  0  0  0
   -1.7750    0.2739   -1.9685 C   0  0  0  0  0  0  0  0  0  0  0  0
   -0.4210   -1.6596   -1.1057 C   0  0  0  0  0  0  0  0  0  0  0  0
    1.2235   -0.9341    1.2418 H   0  0  0  0  0  0  0  0  0  0  0  0
    1.5063    0.3829    2.3910 H   0  0  0  0  0  0  0  0  0  0  0  0
    2.7273   -0.0194    1.1731 H   0  0  0  0  0  0  0  0  0  0  0  0
    1.1624    0.7014   -0.6433 H   0  0  0  0  0  0  0  0  0  0  0  0
    1.3359    3.1255   -0.2367 H   0  0  0  0  0  0  0  0  0  0  0  0
    2.8135    2.2862    0.2525 H   0  0  0  0  0  0  0  0  0  0  0  0
    1.6604    2.8341    1.4819 H   0  0  0  0  0  0  0  0  0  0  0  0
   -0.5809    1.7159    1.6437 H   0  0  0  0  0  0  0  0  0  0  0  0
   -0.8590    2.0347   -0.0510 H   0  0  0  0  0  0  0  0  0  0  0  0
   -1.0761   -0.7052    1.3259 H   0  0  0  0  0  0  0  0  0  0  0  0
   -2.6880    0.8790    1.9426 H   0  0  0  0  0  0  0  0  0  0  0  0
   -3.3728   -0.3114    1.0662 H   0  0  0  0  0  0  0  0  0  0  0  0
   -2.4584   -1.3141   -0.7332 H   0  0  0  0  0  0  0  0  0  0  0  0
   -2.6132    0.9522   -1.7807 H   0  0  0  0  0  0  0  0  0  0  0  0
   -2.0041   -0.2868   -2.8816 H   0  0  0  0  0  0  0  0  0  0  0  0
   -0.8833    0.8760   -2.1690 H   0  0  0  0  0  0  0  0  0  0  0  0
   -0.6855   -2.2827   -1.9678 H   0  0  0  0  0  0  0  0  0  0  0  0
   -0.2397   -2.3326   -0.2615 H   0  0  0  0  0  0  0  0  0  0  0  0
    0.5139   -1.1556   -1.3546 H   0  0  0  0  0  0  0  0  0  0  0  0
  1  2  1  0
  2  3  1  0
  2  4  1  0
  4  5  1  0
  5  6  1  0
  5  7  1  0
  7  8  1  0
  7  9  1  0
  1 10  1  0
  1 11  1  0
  1 12  1  0
  2 13  1  0
  3 14  1  0
  3 15  1  0
  3 16  1  0
  4 17  1  0
  4 18  1  0
  5 19  1  1
  6 20  1  0
  6 21  1  0
  7 22  1  0
  8 23  1  0
  8 24  1  0
  8 25  1  0
  9 26  1  0
  9 27  1  0
  9 28  1  0
M  END
