
     RDKit          3D

 31 30  0  0  0  0  0  0  0  0999 V2000
    1.2270    3.1368    1.2298 C   0  0  0  0  0  0  0  0  0  0  0  0
   -0.2844    3.2572    1.4269 C   0  0  0  0  0  0  0  0  0  0  0  0
   -0.8215    4.4931    0.7058 C   0  0  0  0  0  0  0  0  0  0  0  0
   -1.0295    1.9674    1.0295 C   0  0  0  0  0  0  0  0  0  0  0  0
   -0.9627    1.6040   -0.4624 C   0  0  0  0  0  0  0  0  0  0  0  0
   -1.6446    0.2513   -0.7798 C   0  0  1  0  0  0  0  0  0  0  0  0
   -2.3114    0.3644   -2.0870 N   0  0  0  0  0  0  0  0  0  0  0  0
   -0.6629   -0.9560   -0.8325 C   0  0  0  0  0  0  0  0  0  0  0  0
    0.1517   -1.1318    0.4516 C   0  0  0  0  0  0  0  0  0  0  0  0
   -1.4046   -2.2712   -1.1214 C   0  0  0  0  0  0  0  0  0  0  0  0
    1.4975    3.0766    0.1711 H   0  0  0  0  0  0  0  0  0  0  0  0
    1.6165    2.2464    1.7341 H   0  0  0  0  0  0  0  0  0  0  0  0
    1.7387    4.0087    1.6516 H   0  0  0  0  0  0  0  0  0  0  0  0
   -0.4607    3.4045    2.5009 H   0  0  0  0  0  0  0  0  0  0  0  0
   -0.5961    4.4700   -0.3652 H   0  0  0  0  0  0  0  0  0  0  0  0
   -0.3710    5.4027    1.1177 H   0  0  0  0  0  0  0  0  0  0  0  0
   -1.9066    4.5746    0.8270 H   0  0  0  0  0  0  0  0  0  0  0  0
   -0.6426    1.1471    1.6415 H   0  0  0  0  0  0  0  0  0  0  0  0
   -2.0852    2.0776    1.3111 H   0  0  0  0  0  0  0  0  0  0  0  0
    0.0718    1.5909   -0.8225 H   0  0  0  0  0  0  0  0  0  0  0  0
   -1.4665    2.4090   -1.0126 H   0  0  0  0  0  0  0  0  0  0  0  0
   -2.4241    0.0480   -0.0354 H   0  0  0  0  0  0  0  0  0  0  0  0
   -2.9805    1.1331   -2.0661 H   0  0  0  0  0  0  0  0  0  0  0  0
   -1.6254    0.6038   -2.8022 H   0  0  0  0  0  0  0  0  0  0  0  0
    0.0525   -0.7942   -1.6508 H   0  0  0  0  0  0  0  0  0  0  0  0
   -0.5006   -1.2347    1.3249 H   0  0  0  0  0  0  0  0  0  0  0  0
    0.7785   -2.0288    0.3951 H   0  0  0  0  0  0  0  0  0  0  0  0
    0.8268   -0.2865    0.6137 H   0  0  0  0  0  0  0  0  0  0  0  0
   -1.9084   -2.2463   -2.0927 H   0  0  0  0  0  0  0  0  0  0  0  0
   -0.7058   -3.1147   -1.1440 H   0  0  0  0  0  0  0  0  0  0  0  0
   -2.1565   -2.4768   -0.3518 H   0  0  0  0  0  0  0  0  0  0  0  0
  1  2  1  0
  2  3  1  0
  2  4  1  0
  4  5  1  0
  5  6  1  0
  6  7  1  0
  6  8  1  0
  8  9  1  0
  8 10  1  0
  1 11  1  0
  1 12  1  0
  1 13  1  0
  2 14  1  0
  3 15  1  0
  3 16  1  0
  3 17  1  0
  4 18  1  0
  4 19  1  0
  5 20  1  0
  5 21  1  0
  6 22  1  1
  7 23  1  0
  7 24  1  0
  8 25  1  0
  9 26  1  0
  9 27  1  0
  9 28  1  0
 10 29  1  0
 10 30  1  0
 10 31  1  0
M  END
