
     RDKit          3D

 24 23  0  0  0  0  0  0  0  0999 V2000
    1.2445   -0.1917    2.2393 N   0  0  0  0  0  0  0  0  0  0  0  0
    0.1940    0.7837    1.8801 C   0  0  2  0  0  0  0  0  0  0  0  0
   -1.1406    0.3944    2.5525 C   0  0  0  0  0  0  0  0  0  0  0  0
   -2.4444    1.6505    2.3613 S   0  0  0  0  0  0  0  0  0  0  0  0
    0.1312    0.9707    0.3487 C   0  0  0  0  0  0  0  0  0  0  0  0
   -0.4801   -0.1557   -0.4990 C   0  0  0  0  0  0  0  0  0  0  0  0
    0.3956   -1.3956   -0.6741 C   0  0  0  0  0  0  0  0  0  0  0  0
   -0.1301   -2.5723    0.1153 C   0  0  0  0  0  0  0  0  0  0  0  0
    0.4308   -2.7412    1.3429 N   0  0  0  0  0  0  0  0  0  0  0  0
   -1.0123   -3.3190   -0.2918 O   0  0  0  0  0  0  0  0  0  0  0  0
    2.1303    0.1287    1.8365 H   0  0  0  0  0  0  0  0  0  0  0  0
    1.3935   -0.1420    3.2519 H   0  0  0  0  0  0  0  0  0  0  0  0
    0.5189    1.7433    2.3051 H   0  0  0  0  0  0  0  0  0  0  0  0
   -1.5179   -0.5610    2.1753 H   0  0  0  0  0  0  0  0  0  0  0  0
   -0.9823    0.2714    3.6302 H   0  0  0  0  0  0  0  0  0  0  0  0
   -2.6936    1.4239    1.0628 H   0  0  0  0  0  0  0  0  0  0  0  0
   -0.4485    1.8808    0.1452 H   0  0  0  0  0  0  0  0  0  0  0  0
    1.1380    1.1934   -0.0306 H   0  0  0  0  0  0  0  0  0  0  0  0
   -0.6373    0.2672   -1.5007 H   0  0  0  0  0  0  0  0  0  0  0  0
   -1.4779   -0.4183   -0.1320 H   0  0  0  0  0  0  0  0  0  0  0  0
    1.4439   -1.2026   -0.4226 H   0  0  0  0  0  0  0  0  0  0  0  0
    0.3885   -1.7049   -1.7271 H   0  0  0  0  0  0  0  0  0  0  0  0
    0.8476   -1.9257    1.7978 H   0  0  0  0  0  0  0  0  0  0  0  0
   -0.0007   -3.4324    1.9406 H   0  0  0  0  0  0  0  0  0  0  0  0
  1  2  1  0
  2  3  1  0
  3  4  1  0
  2  5  1  0
  5  6  1  0
  6  7  1  0
  7  8  1  0
  8  9  1  0
  8 10  2  0
  1 11  1  0
  1 12  1  0
  2 13  1  1
  3 14  1  0
  3 15  1  0
  4 16  1  0
  5 17  1  0
  5 18  1  0
  6 19  1  0
  6 20  1  0
  7 21  1  0
  7 22  1  0
  9 23  1  0
  9 24  1  0
M  END
