
     RDKit          3D

 46 45  0  0  0  0  0  0  0  0999 V2000
   -2.5407    3.5749   -3.3081 N   0  0  0  0  0  0  0  0  0  0  0  0
   -2.0967    2.8404   -2.1138 C   0  0  2  0  0  0  0  0  0  0  0  0
   -3.3216    2.5283   -1.2313 C   0  0  0  0  0  0  0  0  0  0  0  0
   -3.0124    1.6488   -0.0131 C   0  0  0  0  0  0  0  0  0  0  0  0
   -2.8544    2.6386    1.5149 S   0  0  0  0  0  0  0  0  0  0  0  0
   -2.5871    1.1830    2.9427 S   0  0  0  0  0  0  0  0  0  0  0  0
   -0.7754    1.1153    3.1979 C   0  0  0  0  0  0  0  0  0  0  0  0
    0.0315    0.7536    1.9509 C   0  0  0  0  0  0  0  0  0  0  0  0
    1.5344    0.5918    2.2582 C   0  0  1  0  0  0  0  0  0  0  0  0
    1.7563   -0.6077    3.0643 N   0  0  0  0  0  0  0  0  0  0  0  0
    2.3939    0.5819    0.9757 C   0  0  0  0  0  0  0  0  0  0  0  0
    2.2109   -0.6325    0.0635 C   0  0  0  0  0  0  0  0  0  0  0  0
    2.9729   -1.8531    0.5386 C   0  0  0  0  0  0  0  0  0  0  0  0
    2.5955   -3.0198   -0.0634 N   0  0  0  0  0  0  0  0  0  0  0  0
    3.8930   -1.8347    1.3494 O   0  0  0  0  0  0  0  0  0  0  0  0
   -1.0098    3.6562   -1.3919 C   0  0  0  0  0  0  0  0  0  0  0  0
    0.2342    3.9152   -2.2470 C   0  0  0  0  0  0  0  0  0  0  0  0
    1.0045    2.6477   -2.5519 C   0  0  0  0  0  0  0  0  0  0  0  0
    1.9850    2.7995   -3.4892 N   0  0  0  0  0  0  0  0  0  0  0  0
    0.8282    1.5699   -1.9956 O   0  0  0  0  0  0  0  0  0  0  0  0
   -3.2407    3.0233   -3.8049 H   0  0  0  0  0  0  0  0  0  0  0  0
   -3.0168    4.4319   -3.0240 H   0  0  0  0  0  0  0  0  0  0  0  0
   -1.6762    1.8884   -2.4555 H   0  0  0  0  0  0  0  0  0  0  0  0
   -3.8400    3.4517   -0.9420 H   0  0  0  0  0  0  0  0  0  0  0  0
   -4.0362    1.9695   -1.8528 H   0  0  0  0  0  0  0  0  0  0  0  0
   -2.1128    1.0479   -0.1767 H   0  0  0  0  0  0  0  0  0  0  0  0
   -3.8543    0.9641    0.1386 H   0  0  0  0  0  0  0  0  0  0  0  0
   -0.6132    0.3714    3.9842 H   0  0  0  0  0  0  0  0  0  0  0  0
   -0.4486    2.0801    3.6010 H   0  0  0  0  0  0  0  0  0  0  0  0
   -0.0814    1.5450    1.2027 H   0  0  0  0  0  0  0  0  0  0  0  0
   -0.3646   -0.1684    1.5074 H   0  0  0  0  0  0  0  0  0  0  0  0
    1.8644    1.4598    2.8439 H   0  0  0  0  0  0  0  0  0  0  0  0
    1.6078   -0.4054    4.0516 H   0  0  0  0  0  0  0  0  0  0  0  0
    2.7387   -0.8993    2.9902 H   0  0  0  0  0  0  0  0  0  0  0  0
    3.4511    0.6791    1.2558 H   0  0  0  0  0  0  0  0  0  0  0  0
    2.1566    1.4858    0.4008 H   0  0  0  0  0  0  0  0  0  0  0  0
    2.6131   -0.3889   -0.9277 H   0  0  0  0  0  0  0  0  0  0  0  0
    1.1524   -0.8783   -0.0646 H   0  0  0  0  0  0  0  0  0  0  0  0
    1.6844   -3.1014   -0.4931 H   0  0  0  0  0  0  0  0  0  0  0  0
    3.0130   -3.8627    0.3089 H   0  0  0  0  0  0  0  0  0  0  0  0
   -0.6939    3.1343   -0.4835 H   0  0  0  0  0  0  0  0  0  0  0  0
   -1.4236    4.6213   -1.0721 H   0  0  0  0  0  0  0  0  0  0  0  0
   -0.0272    4.4189   -3.1836 H   0  0  0  0  0  0  0  0  0  0  0  0
    0.9103    4.5791   -1.6947 H   0  0  0  0  0  0  0  0  0  0  0  0
    1.9757    3.5808   -4.1308 H   0  0  0  0  0  0  0  0  0  0  0  0
    2.4630    1.9576   -3.7833 H   0  0  0  0  0  0  0  0  0  0  0  0
  1  2  1  0
  2  3  1  0
  3  4  1  0
  4  5  1  0
  5  6  1  0
  6  7  1  0
  7  8  1  0
  8  9  1  0
  9 10  1  0
  9 11  1  0
 11 12  1  0
 12 13  1  0
 13 14  1  0
 13 15  2  0
  2 16  1  0
 16 17  1  0
 17 18  1  0
 18 19  1  0
 18 20  2  0
  1 21  1  0
  1 22  1  0
  2 23  1  6
  3 24  1  0
  3 25  1  0
  4 26  1  0
  4 27  1  0
  7 28  1  0
  7 29  1  0
  8 30  1  0
  8 31  1  0
  9 32  1  1
 10 33  1  0
 10 34  1  0
 11 35  1  0
 11 36  1  0
 12 37  1  0
 12 38  1  0
 14 39  1  0
 14 40  1  0
 16 41  1  0
 16 42  1  0
 17 43  1  0
 17 44  1  0
 19 45  1  0
 19 46  1  0
M  END
