
     RDKit          3D

 25 25  0  0  0  0  0  0  0  0999 V2000
   -1.2379    1.5201    1.8564 C   0  0  1  0  0  0  0  0  0  0  0  0
   -1.5251    0.5836    2.9682 N   0  0  0  0  0  0  0  0  0  0  0  0
   -0.1180    1.0137    0.9276 C   0  0  0  0  0  0  0  0  0  0  0  0
   -0.3755   -0.3131    0.2474 C   0  0  0  0  0  0  0  0  0  0  0  0
   -0.0175   -1.5113    0.8827 C   0  0  0  0  0  0  0  0  0  0  0  0
   -0.2587   -2.7415    0.2696 C   0  0  0  0  0  0  0  0  0  0  0  0
   -0.8583   -2.7881   -0.9865 C   0  0  0  0  0  0  0  0  0  0  0  0
   -1.2147   -1.6050   -1.6302 C   0  0  0  0  0  0  0  0  0  0  0  0
   -0.9739   -0.3731   -1.0181 C   0  0  0  0  0  0  0  0  0  0  0  0
   -2.5401    1.8437    1.1010 C   0  0  0  0  0  0  0  0  0  0  0  0
   -2.4999    2.9941    0.1264 C   0  0  0  0  0  0  0  0  0  0  0  0
   -3.5906    1.2304    1.3072 O   0  0  0  0  0  0  0  0  0  0  0  0
   -0.9073    2.4587    2.3176 H   0  0  0  0  0  0  0  0  0  0  0  0
   -2.3343    0.9451    3.4801 H   0  0  0  0  0  0  0  0  0  0  0  0
   -1.8921   -0.2774    2.5481 H   0  0  0  0  0  0  0  0  0  0  0  0
    0.0956    1.7651    0.1568 H   0  0  0  0  0  0  0  0  0  0  0  0
    0.8136    0.9314    1.5045 H   0  0  0  0  0  0  0  0  0  0  0  0
    0.4477   -1.4914    1.8668 H   0  0  0  0  0  0  0  0  0  0  0  0
    0.0196   -3.6628    0.7744 H   0  0  0  0  0  0  0  0  0  0  0  0
   -1.0484   -3.7459   -1.4634 H   0  0  0  0  0  0  0  0  0  0  0  0
   -1.6826   -1.6417   -2.6106 H   0  0  0  0  0  0  0  0  0  0  0  0
   -1.2568    0.5340   -1.5447 H   0  0  0  0  0  0  0  0  0  0  0  0
   -1.8550    2.7546   -0.7204 H   0  0  0  0  0  0  0  0  0  0  0  0
   -3.5087    3.1904   -0.2481 H   0  0  0  0  0  0  0  0  0  0  0  0
   -2.1378    3.8915    0.6342 H   0  0  0  0  0  0  0  0  0  0  0  0
  1  2  1  0
  1  3  1  0
  3  4  1  0
  4  5  2  0
  5  6  1  0
  6  7  2  0
  7  8  1  0
  8  9  2  0
  1 10  1  0
 10 11  1  0
 10 12  2  0
  9  4  1  0
  1 13  1  1
  2 14  1  0
  2 15  1  0
  3 16  1  0
  3 17  1  0
  5 18  1  0
  6 19  1  0
  7 20  1  0
  8 21  1  0
  9 22  1  0
 11 23  1  0
 11 24  1  0
 11 25  1  0
M  END
