
     RDKit          3D

 31 31  0  0  0  0  0  0  0  0999 V2000
    3.9612   -0.1820   -0.7415 C   0  0  0  0  0  0  0  0  0  0  0  0
    2.4695    0.1226   -0.5231 C   0  0  0  0  0  0  0  0  0  0  0  0
    2.3645    1.2828    0.4745 C   0  0  0  0  0  0  0  0  0  0  0  0
    1.7417    0.4361   -1.8603 C   0  0  1  0  0  0  0  0  0  0  0  0
    1.9859   -0.6310   -2.8463 N   0  0  0  0  0  0  0  0  0  0  0  0
    0.2380    0.7741   -1.7390 C   0  0  0  0  0  0  0  0  0  0  0  0
   -0.8750   -0.5933   -1.2662 S   0  0  0  0  0  4  0  0  0  0  0  0
   -0.1677   -1.9018   -1.4662 O   0  0  0  0  0  0  0  0  0  0  0  0
   -0.9694   -0.3212    0.5134 C   0  0  0  0  0  0  0  0  0  0  0  0
   -1.6438    0.8006    1.0116 C   0  0  0  0  0  0  0  0  0  0  0  0
   -1.7370    1.0131    2.3888 C   0  0  0  0  0  0  0  0  0  0  0  0
   -1.1685    0.1001    3.2755 C   0  0  0  0  0  0  0  0  0  0  0  0
   -0.5146   -1.0297    2.7877 C   0  0  0  0  0  0  0  0  0  0  0  0
   -0.4221   -1.2437    1.4113 C   0  0  0  0  0  0  0  0  0  0  0  0
    4.4661    0.6502   -1.2439 H   0  0  0  0  0  0  0  0  0  0  0  0
    4.4664   -0.3551    0.2152 H   0  0  0  0  0  0  0  0  0  0  0  0
    4.1033   -1.0839   -1.3454 H   0  0  0  0  0  0  0  0  0  0  0  0
    2.0260   -0.7676   -0.0645 H   0  0  0  0  0  0  0  0  0  0  0  0
    2.9102    1.0521    1.3961 H   0  0  0  0  0  0  0  0  0  0  0  0
    2.7872    2.2024    0.0553 H   0  0  0  0  0  0  0  0  0  0  0  0
    1.3312    1.4877    0.7605 H   0  0  0  0  0  0  0  0  0  0  0  0
    2.2183    1.3348   -2.2752 H   0  0  0  0  0  0  0  0  0  0  0  0
    1.5471   -1.4921   -2.4881 H   0  0  0  0  0  0  0  0  0  0  0  0
    1.4873   -0.4352   -3.7128 H   0  0  0  0  0  0  0  0  0  0  0  0
   -0.1207    1.0881   -2.7277 H   0  0  0  0  0  0  0  0  0  0  0  0
    0.0711    1.6335   -1.0842 H   0  0  0  0  0  0  0  0  0  0  0  0
   -2.1060    1.5161    0.3363 H   0  0  0  0  0  0  0  0  0  0  0  0
   -2.2580    1.8873    2.7712 H   0  0  0  0  0  0  0  0  0  0  0  0
   -1.2425    0.2637    4.3478 H   0  0  0  0  0  0  0  0  0  0  0  0
   -0.0798   -1.7489    3.4775 H   0  0  0  0  0  0  0  0  0  0  0  0
    0.0834   -2.1349    1.0438 H   0  0  0  0  0  0  0  0  0  0  0  0
  1  2  1  0
  2  3  1  0
  2  4  1  0
  4  5  1  0
  4  6  1  0
  7  6  1  6
  7  8  2  0
  7  9  1  0
  9 10  2  0
 10 11  1  0
 11 12  2  0
 12 13  1  0
 13 14  2  0
 14  9  1  0
  1 15  1  0
  1 16  1  0
  1 17  1  0
  2 18  1  0
  3 19  1  0
  3 20  1  0
  3 21  1  0
  4 22  1  6
  5 23  1  0
  5 24  1  0
  6 25  1  0
  6 26  1  0
 10 27  1  0
 11 28  1  0
 12 29  1  0
 13 30  1  0
 14 31  1  0
M  END
