
     RDKit          3D

 31 31  0  0  0  0  0  0  0  0999 V2000
    2.4694    2.8150   -1.4586 C   0  0  0  0  0  0  0  0  0  0  0  0
    1.2091    2.0147   -1.7657 C   0  0  0  0  0  0  0  0  0  0  0  0
    1.3690    0.4828   -1.6807 C   0  0  1  0  0  0  0  0  0  0  0  0
    2.3320    0.0330   -2.6949 N   0  0  0  0  0  0  0  0  0  0  0  0
    1.7759    0.0418   -0.2645 C   0  0  0  0  0  0  0  0  0  0  0  0
    1.5454   -1.7515    0.0125 S   0  0  0  0  0  4  0  0  0  0  0  0
    2.1196   -2.0574    1.3663 O   0  0  0  0  0  0  0  0  0  0  0  0
   -0.2463   -1.7388    0.2534 C   0  0  0  0  0  0  0  0  0  0  0  0
   -0.8019   -1.3954    1.4891 C   0  0  0  0  0  0  0  0  0  0  0  0
   -2.1881   -1.3842    1.6592 C   0  0  0  0  0  0  0  0  0  0  0  0
   -3.0349   -1.7346    0.6012 C   0  0  0  0  0  0  0  0  0  0  0  0
   -4.5245   -1.6941    0.7764 C   0  0  0  0  0  0  0  0  0  0  0  0
   -2.4749   -2.0784   -0.6349 C   0  0  0  0  0  0  0  0  0  0  0  0
   -1.0881   -2.0903   -0.8055 C   0  0  0  0  0  0  0  0  0  0  0  0
    2.2651    3.8855   -1.5652 H   0  0  0  0  0  0  0  0  0  0  0  0
    3.2842    2.5623   -2.1436 H   0  0  0  0  0  0  0  0  0  0  0  0
    2.8121    2.6452   -0.4337 H   0  0  0  0  0  0  0  0  0  0  0  0
    0.8591    2.2870   -2.7699 H   0  0  0  0  0  0  0  0  0  0  0  0
    0.4181    2.3287   -1.0730 H   0  0  0  0  0  0  0  0  0  0  0  0
    0.3965    0.0522   -1.9411 H   0  0  0  0  0  0  0  0  0  0  0  0
    2.0387    0.3499   -3.6190 H   0  0  0  0  0  0  0  0  0  0  0  0
    2.3656   -0.9847   -2.7369 H   0  0  0  0  0  0  0  0  0  0  0  0
    1.2047    0.5805    0.4992 H   0  0  0  0  0  0  0  0  0  0  0  0
    2.8370    0.2482   -0.0835 H   0  0  0  0  0  0  0  0  0  0  0  0
   -0.1568   -1.1404    2.3277 H   0  0  0  0  0  0  0  0  0  0  0  0
   -2.6010   -1.1085    2.6273 H   0  0  0  0  0  0  0  0  0  0  0  0
   -5.0138   -2.4329    0.1329 H   0  0  0  0  0  0  0  0  0  0  0  0
   -4.9036   -0.6989    0.5247 H   0  0  0  0  0  0  0  0  0  0  0  0
   -4.8030   -1.9286    1.8092 H   0  0  0  0  0  0  0  0  0  0  0  0
   -3.1169   -2.3476   -1.4712 H   0  0  0  0  0  0  0  0  0  0  0  0
   -0.6758   -2.3782   -1.7692 H   0  0  0  0  0  0  0  0  0  0  0  0
  1  2  1  0
  2  3  1  0
  3  4  1  0
  3  5  1  0
  6  5  1  1
  6  7  2  0
  6  8  1  0
  8  9  2  0
  9 10  1  0
 10 11  2  0
 11 12  1  0
 11 13  1  0
 13 14  2  0
 14  8  1  0
  1 15  1  0
  1 16  1  0
  1 17  1  0
  2 18  1  0
  2 19  1  0
  3 20  1  6
  4 21  1  0
  4 22  1  0
  5 23  1  0
  5 24  1  0
  9 25  1  0
 10 26  1  0
 12 27  1  0
 12 28  1  0
 12 29  1  0
 13 30  1  0
 14 31  1  0
M  END
