
     RDKit          3D

 42 43  0  0  0  0  0  0  0  0999 V2000
   -0.3315    3.0560    3.3588 C   0  0  0  0  0  0  0  0  0  0  0  0
    0.0701    2.5164    1.9912 C   0  0  0  0  0  0  0  0  0  0  0  0
   -1.1145    2.0615    1.1032 C   0  0  1  0  0  0  0  0  0  0  0  0
   -2.1305    3.2078    0.9383 C   0  0  0  0  0  0  0  0  0  0  0  0
   -0.6276    1.5294   -0.2929 C   0  0  2  0  0  0  0  0  0  0  0  0
   -1.7804    1.0999   -1.1189 N   0  0  0  0  0  0  0  0  0  0  0  0
    0.5226    0.4405   -0.2285 C   0  0  0  0  0  0  0  0  0  0  0  0
    0.2918   -0.7979    0.6423 C   0  0  0  0  0  0  0  0  0  0  0  0
    1.4022   -1.4154    1.2488 C   0  0  0  0  0  0  0  0  0  0  0  0
    1.2503   -2.5540    2.0426 C   0  0  0  0  0  0  0  0  0  0  0  0
   -0.0139   -3.1015    2.2388 C   0  0  0  0  0  0  0  0  0  0  0  0
   -1.1228   -2.5137    1.6365 C   0  0  0  0  0  0  0  0  0  0  0  0
   -0.9707   -1.3746    0.8412 C   0  0  0  0  0  0  0  0  0  0  0  0
    1.0529    0.1045   -1.6329 C   0  0  0  0  0  0  0  0  0  0  0  0
    0.6007   -1.0092   -2.3591 C   0  0  0  0  0  0  0  0  0  0  0  0
    1.0866   -1.2709   -3.6419 C   0  0  0  0  0  0  0  0  0  0  0  0
    2.0274   -0.4224   -4.2202 C   0  0  0  0  0  0  0  0  0  0  0  0
    2.4834    0.6897   -3.5172 C   0  0  0  0  0  0  0  0  0  0  0  0
    1.9992    0.9530   -2.2344 C   0  0  0  0  0  0  0  0  0  0  0  0
    0.5591    3.1964    3.9804 H   0  0  0  0  0  0  0  0  0  0  0  0
   -0.9989    2.3602    3.8765 H   0  0  0  0  0  0  0  0  0  0  0  0
   -0.8267    4.0280    3.2804 H   0  0  0  0  0  0  0  0  0  0  0  0
    0.7369    1.6691    2.1785 H   0  0  0  0  0  0  0  0  0  0  0  0
    0.6592    3.2777    1.4657 H   0  0  0  0  0  0  0  0  0  0  0  0
   -1.6337    1.2515    1.6303 H   0  0  0  0  0  0  0  0  0  0  0  0
   -3.0115    2.8929    0.3715 H   0  0  0  0  0  0  0  0  0  0  0  0
   -1.6786    4.0628    0.4246 H   0  0  0  0  0  0  0  0  0  0  0  0
   -2.5093    3.5514    1.9054 H   0  0  0  0  0  0  0  0  0  0  0  0
   -0.1984    2.3924   -0.8229 H   0  0  0  0  0  0  0  0  0  0  0  0
   -2.3403    1.9125   -1.3716 H   0  0  0  0  0  0  0  0  0  0  0  0
   -1.4301    0.7346   -2.0067 H   0  0  0  0  0  0  0  0  0  0  0  0
    1.3658    0.9553    0.2556 H   0  0  0  0  0  0  0  0  0  0  0  0
    2.4014   -1.0110    1.0985 H   0  0  0  0  0  0  0  0  0  0  0  0
    2.1203   -3.0146    2.5027 H   0  0  0  0  0  0  0  0  0  0  0  0
   -0.1347   -3.9881    2.8549 H   0  0  0  0  0  0  0  0  0  0  0  0
   -2.1112   -2.9422    1.7807 H   0  0  0  0  0  0  0  0  0  0  0  0
   -1.8574   -0.9503    0.3771 H   0  0  0  0  0  0  0  0  0  0  0  0
   -0.1363   -1.6867   -1.9330 H   0  0  0  0  0  0  0  0  0  0  0  0
    0.7297   -2.1405   -4.1876 H   0  0  0  0  0  0  0  0  0  0  0  0
    2.4055   -0.6293   -5.2177 H   0  0  0  0  0  0  0  0  0  0  0  0
    3.2177    1.3526   -3.9674 H   0  0  0  0  0  0  0  0  0  0  0  0
    2.3683    1.8285   -1.7044 H   0  0  0  0  0  0  0  0  0  0  0  0
  1  2  1  0
  2  3  1  0
  3  4  1  0
  3  5  1  0
  5  6  1  0
  5  7  1  0
  7  8  1  0
  8  9  2  0
  9 10  1  0
 10 11  2  0
 11 12  1  0
 12 13  2  0
  7 14  1  0
 14 15  2  0
 15 16  1  0
 16 17  2  0
 17 18  1  0
 18 19  2  0
 13  8  1  0
 19 14  1  0
  1 20  1  0
  1 21  1  0
  1 22  1  0
  2 23  1  0
  2 24  1  0
  3 25  1  1
  4 26  1  0
  4 27  1  0
  4 28  1  0
  5 29  1  6
  6 30  1  0
  6 31  1  0
  7 32  1  0
  9 33  1  0
 10 34  1  0
 11 35  1  0
 12 36  1  0
 13 37  1  0
 15 38  1  0
 16 39  1  0
 17 40  1  0
 18 41  1  0
 19 42  1  0
M  END
