
     RDKit          3D

 37 36  0  0  0  0  0  0  0  0999 V2000
    0.4438    3.2578    2.7621 C   0  0  0  0  0  0  0  0  0  0  0  0
    1.5476    2.7340    1.8373 C   0  0  0  0  0  0  0  0  0  0  0  0
    1.4266    3.4010    0.4625 C   0  0  0  0  0  0  0  0  0  0  0  0
    1.5679    1.1813    1.7830 C   0  0  2  0  0  0  0  0  0  0  0  0
    2.7626    0.7331    1.0441 N   0  0  0  0  0  0  0  0  0  0  0  0
    0.2774    0.5627    1.1939 C   0  0  0  0  0  0  0  0  0  0  0  0
    0.3091   -1.2761    1.2075 S   0  0  0  0  0  0  0  0  0  0  0  0
    0.6451   -1.5944   -0.5659 C   0  0  0  0  0  0  0  0  0  0  0  0
   -0.5633   -1.3263   -1.5011 C   0  0  1  0  0  0  0  0  0  0  0  0
   -0.0690   -0.7977   -2.7890 N   0  0  0  0  0  0  0  0  0  0  0  0
   -1.4321   -2.5883   -1.7824 C   0  0  0  0  0  0  0  0  0  0  0  0
   -2.6216   -2.2612   -2.6999 C   0  0  0  0  0  0  0  0  0  0  0  0
   -1.9726   -3.2418   -0.5067 C   0  0  0  0  0  0  0  0  0  0  0  0
    0.5015    2.7833    3.7472 H   0  0  0  0  0  0  0  0  0  0  0  0
    0.5481    4.3386    2.9080 H   0  0  0  0  0  0  0  0  0  0  0  0
   -0.5541    3.0769    2.3506 H   0  0  0  0  0  0  0  0  0  0  0  0
    2.5023    3.0611    2.2732 H   0  0  0  0  0  0  0  0  0  0  0  0
    0.4629    3.1864   -0.0098 H   0  0  0  0  0  0  0  0  0  0  0  0
    1.5091    4.4894    0.5591 H   0  0  0  0  0  0  0  0  0  0  0  0
    2.2210    3.0732   -0.2150 H   0  0  0  0  0  0  0  0  0  0  0  0
    1.6755    0.8193    2.8147 H   0  0  0  0  0  0  0  0  0  0  0  0
    3.5983    1.0676    1.5236 H   0  0  0  0  0  0  0  0  0  0  0  0
    2.7994   -0.2872    1.1027 H   0  0  0  0  0  0  0  0  0  0  0  0
    0.0946    0.9207    0.1771 H   0  0  0  0  0  0  0  0  0  0  0  0
   -0.5849    0.8526    1.8016 H   0  0  0  0  0  0  0  0  0  0  0  0
    1.5008   -0.9681   -0.8404 H   0  0  0  0  0  0  0  0  0  0  0  0
    0.9845   -2.6311   -0.6692 H   0  0  0  0  0  0  0  0  0  0  0  0
   -1.2080   -0.5478   -1.0766 H   0  0  0  0  0  0  0  0  0  0  0  0
    0.4941    0.0373   -2.6247 H   0  0  0  0  0  0  0  0  0  0  0  0
    0.5511   -1.4779   -3.2278 H   0  0  0  0  0  0  0  0  0  0  0  0
   -0.8137   -3.3364   -2.2973 H   0  0  0  0  0  0  0  0  0  0  0  0
   -3.2337   -3.1527   -2.8756 H   0  0  0  0  0  0  0  0  0  0  0  0
   -3.2638   -1.4938   -2.2543 H   0  0  0  0  0  0  0  0  0  0  0  0
   -2.2900   -1.9026   -3.6793 H   0  0  0  0  0  0  0  0  0  0  0  0
   -2.6446   -4.0726   -0.7495 H   0  0  0  0  0  0  0  0  0  0  0  0
   -2.5342   -2.5243    0.1006 H   0  0  0  0  0  0  0  0  0  0  0  0
   -1.1652   -3.6603    0.1007 H   0  0  0  0  0  0  0  0  0  0  0  0
  1  2  1  0
  2  3  1  0
  2  4  1  0
  4  5  1  0
  4  6  1  0
  6  7  1  0
  7  8  1  0
  8  9  1  0
  9 10  1  0
  9 11  1  0
 11 12  1  0
 11 13  1  0
  1 14  1  0
  1 15  1  0
  1 16  1  0
  2 17  1  0
  3 18  1  0
  3 19  1  0
  3 20  1  0
  4 21  1  1
  5 22  1  0
  5 23  1  0
  6 24  1  0
  6 25  1  0
  8 26  1  0
  8 27  1  0
  9 28  1  1
 10 29  1  0
 10 30  1  0
 11 31  1  0
 12 32  1  0
 12 33  1  0
 12 34  1  0
 13 35  1  0
 13 36  1  0
 13 37  1  0
M  END
