
     RDKit          3D

 34 34  0  0  0  0  0  0  0  0999 V2000
    1.1159   -2.5487    0.4275 C   0  0  0  0  0  0  0  0  0  0  0  0
    2.0069   -1.3703    0.8318 C   0  0  2  0  0  0  0  0  0  0  0  0
    2.0231   -1.2576    2.2969 N   0  0  0  0  0  0  0  0  0  0  0  0
    1.6200   -0.0155    0.1398 C   0  0  1  0  0  0  0  0  0  0  0  0
    1.8859   -0.0756   -1.3055 N   0  0  0  0  0  0  0  0  0  0  0  0
    0.1527    0.4086    0.3936 C   0  0  0  0  0  0  0  0  0  0  0  0
   -0.1453    1.9203    0.2081 C   0  0  0  0  0  0  0  0  0  0  0  0
   -0.0485    2.4402   -1.2351 C   0  0  0  0  0  0  0  0  0  0  0  0
   -1.1601    1.9026   -2.1339 C   0  0  0  0  0  0  0  0  0  0  0  0
   -2.5396    2.2109   -1.5582 C   0  0  0  0  0  0  0  0  0  0  0  0
   -2.6786    1.7390   -0.1138 C   0  0  0  0  0  0  0  0  0  0  0  0
   -1.5431    2.2622    0.7660 C   0  0  0  0  0  0  0  0  0  0  0  0
    1.4664   -3.4768    0.8939 H   0  0  0  0  0  0  0  0  0  0  0  0
    1.1321   -2.7082   -0.6549 H   0  0  0  0  0  0  0  0  0  0  0  0
    0.0754   -2.3983    0.7342 H   0  0  0  0  0  0  0  0  0  0  0  0
    3.0351   -1.6115    0.5322 H   0  0  0  0  0  0  0  0  0  0  0  0
    1.0744   -1.1422    2.6508 H   0  0  0  0  0  0  0  0  0  0  0  0
    2.3622   -2.1306    2.7006 H   0  0  0  0  0  0  0  0  0  0  0  0
    2.2785    0.7597    0.5526 H   0  0  0  0  0  0  0  0  0  0  0  0
    1.2821   -0.7648   -1.7487 H   0  0  0  0  0  0  0  0  0  0  0  0
    2.8457   -0.3795   -1.4637 H   0  0  0  0  0  0  0  0  0  0  0  0
   -0.1075    0.1604    1.4294 H   0  0  0  0  0  0  0  0  0  0  0  0
   -0.5190   -0.1941   -0.2293 H   0  0  0  0  0  0  0  0  0  0  0  0
    0.5883    2.4708    0.8121 H   0  0  0  0  0  0  0  0  0  0  0  0
   -0.1228    3.5362   -1.2138 H   0  0  0  0  0  0  0  0  0  0  0  0
    0.9288    2.2269   -1.6747 H   0  0  0  0  0  0  0  0  0  0  0  0
   -1.0481    0.8207   -2.2674 H   0  0  0  0  0  0  0  0  0  0  0  0
   -1.0739    2.3523   -3.1297 H   0  0  0  0  0  0  0  0  0  0  0  0
   -3.3122    1.7409   -2.1770 H   0  0  0  0  0  0  0  0  0  0  0  0
   -2.7141    3.2933   -1.6014 H   0  0  0  0  0  0  0  0  0  0  0  0
   -2.6991    0.6435   -0.0859 H   0  0  0  0  0  0  0  0  0  0  0  0
   -3.6392    2.0795    0.2898 H   0  0  0  0  0  0  0  0  0  0  0  0
   -1.6343    3.3534    0.8463 H   0  0  0  0  0  0  0  0  0  0  0  0
   -1.6554    1.8694    1.7834 H   0  0  0  0  0  0  0  0  0  0  0  0
  1  2  1  0
  2  3  1  0
  2  4  1  0
  4  5  1  0
  4  6  1  0
  6  7  1  0
  7  8  1  0
  8  9  1  0
  9 10  1  0
 10 11  1  0
 11 12  1  0
 12  7  1  0
  1 13  1  0
  1 14  1  0
  1 15  1  0
  2 16  1  6
  3 17  1  0
  3 18  1  0
  4 19  1  1
  5 20  1  0
  5 21  1  0
  6 22  1  0
  6 23  1  0
  7 24  1  0
  8 25  1  0
  8 26  1  0
  9 27  1  0
  9 28  1  0
 10 29  1  0
 10 30  1  0
 11 31  1  0
 11 32  1  0
 12 33  1  0
 12 34  1  0
M  END
