
     RDKit          3D

 43 42  0  0  0  0  0  0  0  0999 V2000
   -0.9635   -3.4240    3.5951 C   0  0  0  0  0  0  0  0  0  0  0  0
   -1.3120   -2.0976    2.9393 C   0  0  0  0  0  0  0  0  0  0  0  0
   -1.7971   -2.2935    1.5031 C   0  0  0  0  0  0  0  0  0  0  0  0
   -2.1362   -0.9555    0.8441 C   0  0  0  0  0  0  0  0  0  0  0  0
   -2.6081   -1.1512   -0.5980 C   0  0  0  0  0  0  0  0  0  0  0  0
   -2.8795    0.1604   -1.2740 C   0  0  0  0  0  0  0  0  0  0  0  0
   -1.9829    0.8646   -1.9011 C   0  0  0  0  0  0  0  0  0  0  0  0
   -1.0616    1.5652   -2.4946 C   0  0  0  0  0  0  0  0  0  0  0  0
   -0.0455    1.0194   -3.4560 C   0  0  0  0  0  0  0  0  0  0  0  0
    1.2977    0.6897   -2.7884 C   0  0  0  0  0  0  0  0  0  0  0  0
    1.2730   -0.5121   -1.8219 C   0  0  1  0  0  0  0  0  0  0  0  0
    0.9489   -1.7439   -2.5566 N   0  0  0  0  0  0  0  0  0  0  0  0
    2.6271   -0.7257   -1.1145 C   0  0  0  0  0  0  0  0  0  0  0  0
    3.0830    0.4136   -0.1929 C   0  0  0  0  0  0  0  0  0  0  0  0
    2.1197    0.7063    0.9230 C   0  0  0  0  0  0  0  0  0  0  0  0
    2.3594    0.4314    2.2114 C   0  0  0  0  0  0  0  0  0  0  0  0
   -1.8346   -4.0863    3.6288 H   0  0  0  0  0  0  0  0  0  0  0  0
   -0.1645   -3.9341    3.0474 H   0  0  0  0  0  0  0  0  0  0  0  0
   -0.6204   -3.2607    4.6216 H   0  0  0  0  0  0  0  0  0  0  0  0
   -0.4280   -1.4494    2.9488 H   0  0  0  0  0  0  0  0  0  0  0  0
   -2.0881   -1.5967    3.5298 H   0  0  0  0  0  0  0  0  0  0  0  0
   -2.6825   -2.9409    1.4981 H   0  0  0  0  0  0  0  0  0  0  0  0
   -1.0202   -2.8031    0.9201 H   0  0  0  0  0  0  0  0  0  0  0  0
   -2.9173   -0.4467    1.4231 H   0  0  0  0  0  0  0  0  0  0  0  0
   -1.2508   -0.3074    0.8641 H   0  0  0  0  0  0  0  0  0  0  0  0
   -1.8600   -1.7155   -1.1671 H   0  0  0  0  0  0  0  0  0  0  0  0
   -3.5269   -1.7498   -0.6102 H   0  0  0  0  0  0  0  0  0  0  0  0
   -3.8760    0.5774   -1.1592 H   0  0  0  0  0  0  0  0  0  0  0  0
   -0.9764    2.6186   -2.2419 H   0  0  0  0  0  0  0  0  0  0  0  0
   -0.4465    0.1517   -3.9913 H   0  0  0  0  0  0  0  0  0  0  0  0
    0.1303    1.7864   -4.2208 H   0  0  0  0  0  0  0  0  0  0  0  0
    2.0370    0.5004   -3.5782 H   0  0  0  0  0  0  0  0  0  0  0  0
    1.6407    1.5865   -2.2596 H   0  0  0  0  0  0  0  0  0  0  0  0
    0.5002   -0.3662   -1.0621 H   0  0  0  0  0  0  0  0  0  0  0  0
   -0.0089   -1.6865   -2.9023 H   0  0  0  0  0  0  0  0  0  0  0  0
    0.9567   -2.5329   -1.9106 H   0  0  0  0  0  0  0  0  0  0  0  0
    2.5797   -1.6465   -0.5161 H   0  0  0  0  0  0  0  0  0  0  0  0
    3.4101   -0.8906   -1.8669 H   0  0  0  0  0  0  0  0  0  0  0  0
    3.2499    1.3316   -0.7664 H   0  0  0  0  0  0  0  0  0  0  0  0
    4.0626    0.1429    0.2222 H   0  0  0  0  0  0  0  0  0  0  0  0
    1.1807    1.1879    0.6567 H   0  0  0  0  0  0  0  0  0  0  0  0
    1.6280    0.6743    2.9764 H   0  0  0  0  0  0  0  0  0  0  0  0
    3.2827   -0.0404    2.5330 H   0  0  0  0  0  0  0  0  0  0  0  0
  1  2  1  0
  2  3  1  0
  3  4  1  0
  4  5  1  0
  5  6  1  0
  6  7  2  0
  7  8  2  0
  8  9  1  0
  9 10  1  0
 10 11  1  0
 11 12  1  0
 11 13  1  0
 13 14  1  0
 14 15  1  0
 15 16  2  3
  1 17  1  0
  1 18  1  0
  1 19  1  0
  2 20  1  0
  2 21  1  0
  3 22  1  0
  3 23  1  0
  4 24  1  0
  4 25  1  0
  5 26  1  0
  5 27  1  0
  6 28  1  0
  8 29  1  0
  9 30  1  0
  9 31  1  0
 10 32  1  0
 10 33  1  0
 11 34  1  1
 12 35  1  0
 12 36  1  0
 13 37  1  0
 13 38  1  0
 14 39  1  0
 14 40  1  0
 15 41  1  0
 16 42  1  0
 16 43  1  0
M  END
