
     RDKit          3D

 21 21  0  0  0  0  0  0  0  0999 V2000
    1.2507   -1.0889    2.1184 N   0  0  0  0  0  0  0  0  0  0  0  0
   -0.0472   -0.3614    2.1523 C   0  0  1  0  0  0  0  0  0  0  0  0
    0.1290    1.0642    2.5211 C   0  0  0  0  0  0  0  0  0  0  0  0
    0.3078    2.1678    2.8357 N   0  0  0  0  0  0  0  0  0  0  0  0
   -0.8804   -0.4909    0.8487 C   0  0  1  0  0  0  0  0  0  0  0  0
   -2.1220    0.0405    1.0863 F   0  0  0  0  0  0  0  0  0  0  0  0
   -0.2340    0.1016   -0.3884 C   0  0  0  0  0  0  0  0  0  0  0  0
   -0.5313    1.4125   -0.7879 C   0  0  0  0  0  0  0  0  0  0  0  0
    0.0758    1.9640   -1.9169 C   0  0  0  0  0  0  0  0  0  0  0  0
    0.9815    1.2110   -2.6613 C   0  0  0  0  0  0  0  0  0  0  0  0
    1.2797   -0.0954   -2.2798 C   0  0  0  0  0  0  0  0  0  0  0  0
    0.6750   -0.6490   -1.1503 C   0  0  0  0  0  0  0  0  0  0  0  0
    1.8618   -0.6237    1.4417 H   0  0  0  0  0  0  0  0  0  0  0  0
    1.7134   -0.9662    3.0213 H   0  0  0  0  0  0  0  0  0  0  0  0
   -0.6404   -0.8249    2.9510 H   0  0  0  0  0  0  0  0  0  0  0  0
   -1.0619   -1.5557    0.6548 H   0  0  0  0  0  0  0  0  0  0  0  0
   -1.2396    2.0146   -0.2202 H   0  0  0  0  0  0  0  0  0  0  0  0
   -0.1599    2.9826   -2.2154 H   0  0  0  0  0  0  0  0  0  0  0  0
    1.4517    1.6424   -3.5413 H   0  0  0  0  0  0  0  0  0  0  0  0
    1.9820   -0.6839   -2.8651 H   0  0  0  0  0  0  0  0  0  0  0  0
    0.9173   -1.6730   -0.8710 H   0  0  0  0  0  0  0  0  0  0  0  0
  1  2  1  0
  2  3  1  0
  3  4  3  0
  2  5  1  0
  5  6  1  0
  5  7  1  0
  7  8  2  0
  8  9  1  0
  9 10  2  0
 10 11  1  0
 11 12  2  0
 12  7  1  0
  1 13  1  0
  1 14  1  0
  2 15  1  1
  5 16  1  6
  8 17  1  0
  9 18  1  0
 10 19  1  0
 11 20  1  0
 12 21  1  0
M  END
