
     RDKit          3D

 29 28  0  0  0  0  0  0  0  0999 V2000
    1.6997    1.2606    2.8632 C   0  0  0  0  0  0  0  0  0  0  0  0
    2.5375    1.0553    1.6108 C   0  0  0  0  0  0  0  0  0  0  0  0
    1.7380    0.5121    0.4232 C   0  0  0  0  0  0  0  0  0  0  0  0
    1.2091   -0.9078    0.6520 C   0  0  0  0  0  0  0  0  0  0  0  0
    0.6101   -1.5546   -0.6124 C   0  0  1  0  0  0  0  0  0  0  0  0
    0.2362   -3.0119   -0.3200 C   0  0  0  0  0  0  0  0  0  0  0  0
   -0.5568   -0.7869   -1.2824 C   0  0  0  0  0  0  0  0  0  0  0  0
   -1.9140   -0.7640   -0.5516 C   0  0  2  0  0  0  0  0  0  0  0  0
   -2.9386   -0.2949   -1.5114 N   0  0  0  0  0  0  0  0  0  0  0  0
   -1.8933    0.0943    0.6555 C   0  0  0  0  0  0  0  0  0  0  0  0
   -1.9141    0.7830    1.5902 N   0  0  0  0  0  0  0  0  0  0  0  0
    2.3062    1.7229    3.6487 H   0  0  0  0  0  0  0  0  0  0  0  0
    0.8486    1.9188    2.6626 H   0  0  0  0  0  0  0  0  0  0  0  0
    1.3204    0.3117    3.2533 H   0  0  0  0  0  0  0  0  0  0  0  0
    2.9752    2.0187    1.3231 H   0  0  0  0  0  0  0  0  0  0  0  0
    3.3736    0.3834    1.8370 H   0  0  0  0  0  0  0  0  0  0  0  0
    0.9128    1.1984    0.2057 H   0  0  0  0  0  0  0  0  0  0  0  0
    2.3925    0.5126   -0.4570 H   0  0  0  0  0  0  0  0  0  0  0  0
    2.0441   -1.5341    0.9940 H   0  0  0  0  0  0  0  0  0  0  0  0
    0.4767   -0.9180    1.4647 H   0  0  0  0  0  0  0  0  0  0  0  0
    1.4163   -1.5857   -1.3595 H   0  0  0  0  0  0  0  0  0  0  0  0
    1.1250   -3.5865   -0.0369 H   0  0  0  0  0  0  0  0  0  0  0  0
   -0.4811   -3.0894    0.5031 H   0  0  0  0  0  0  0  0  0  0  0  0
   -0.1987   -3.4901   -1.2039 H   0  0  0  0  0  0  0  0  0  0  0  0
   -0.2359    0.2375   -1.5117 H   0  0  0  0  0  0  0  0  0  0  0  0
   -0.7108   -1.2649   -2.2617 H   0  0  0  0  0  0  0  0  0  0  0  0
   -2.1992   -1.7803   -0.2632 H   0  0  0  0  0  0  0  0  0  0  0  0
   -2.7259    0.6654   -1.7856 H   0  0  0  0  0  0  0  0  0  0  0  0
   -3.8420   -0.2528   -1.0374 H   0  0  0  0  0  0  0  0  0  0  0  0
  1  2  1  0
  2  3  1  0
  3  4  1  0
  4  5  1  0
  5  6  1  0
  5  7  1  0
  7  8  1  0
  8  9  1  0
  8 10  1  0
 10 11  3  0
  1 12  1  0
  1 13  1  0
  1 14  1  0
  2 15  1  0
  2 16  1  0
  3 17  1  0
  3 18  1  0
  4 19  1  0
  4 20  1  0
  5 21  1  6
  6 22  1  0
  6 23  1  0
  6 24  1  0
  7 25  1  0
  7 26  1  0
  8 27  1  1
  9 28  1  0
  9 29  1  0
M  END
