
     RDKit          3D

 34 34  0  0  0  0  0  0  0  0999 V2000
    1.5083   -2.6742    0.4875 C   0  0  0  0  0  0  0  0  0  0  0  0
    1.3691   -1.1689    0.1484 C   0  0  0  0  0  0  0  0  0  0  0  0
    0.8012   -1.0831   -1.2813 C   0  0  0  0  0  0  0  0  0  0  0  0
    2.7838   -0.5532    0.1377 C   0  0  0  0  0  0  0  0  0  0  0  0
    0.4139   -0.4796    1.1985 C   0  0  1  0  0  0  0  0  0  0  0  0
    0.9558   -0.6640    2.5719 N   0  0  0  0  0  0  0  0  0  0  0  0
    0.0670    1.0473    0.9235 C   0  0  2  0  0  0  0  0  0  0  0  0
   -0.3220    1.7600    2.1596 N   0  0  0  0  0  0  0  0  0  0  0  0
   -1.0149    1.2931   -0.1177 C   0  0  0  0  0  0  0  0  0  0  0  0
   -2.2495    0.6237   -0.0877 C   0  0  0  0  0  0  0  0  0  0  0  0
   -3.2263    0.8811   -1.0529 C   0  0  0  0  0  0  0  0  0  0  0  0
   -2.9914    1.8218   -2.0525 C   0  0  0  0  0  0  0  0  0  0  0  0
   -1.7838    2.5138   -2.0830 C   0  0  0  0  0  0  0  0  0  0  0  0
   -0.8065    2.2572   -1.1192 C   0  0  0  0  0  0  0  0  0  0  0  0
    0.5279   -3.1630    0.5161 H   0  0  0  0  0  0  0  0  0  0  0  0
    2.1151   -3.1950   -0.2626 H   0  0  0  0  0  0  0  0  0  0  0  0
    1.9935   -2.8325    1.4565 H   0  0  0  0  0  0  0  0  0  0  0  0
    1.3867   -1.6975   -1.9760 H   0  0  0  0  0  0  0  0  0  0  0  0
   -0.2323   -1.4430   -1.3214 H   0  0  0  0  0  0  0  0  0  0  0  0
    0.8336   -0.0623   -1.6711 H   0  0  0  0  0  0  0  0  0  0  0  0
    2.7670    0.5039   -0.1437 H   0  0  0  0  0  0  0  0  0  0  0  0
    3.4262   -1.0668   -0.5877 H   0  0  0  0  0  0  0  0  0  0  0  0
    3.2741   -0.6361    1.1130 H   0  0  0  0  0  0  0  0  0  0  0  0
   -0.5223   -1.0506    1.1971 H   0  0  0  0  0  0  0  0  0  0  0  0
    0.2589   -0.3558    3.2469 H   0  0  0  0  0  0  0  0  0  0  0  0
    1.7730   -0.0688    2.6955 H   0  0  0  0  0  0  0  0  0  0  0  0
    0.9871    1.5387    0.5894 H   0  0  0  0  0  0  0  0  0  0  0  0
    0.4041    1.6327    2.8578 H   0  0  0  0  0  0  0  0  0  0  0  0
   -1.1714    1.3372    2.5272 H   0  0  0  0  0  0  0  0  0  0  0  0
   -2.4714   -0.1000    0.6919 H   0  0  0  0  0  0  0  0  0  0  0  0
   -4.1749    0.3516   -1.0190 H   0  0  0  0  0  0  0  0  0  0  0  0
   -3.7535    2.0238   -2.8003 H   0  0  0  0  0  0  0  0  0  0  0  0
   -1.6035    3.2596   -2.8527 H   0  0  0  0  0  0  0  0  0  0  0  0
    0.1243    2.8195   -1.1516 H   0  0  0  0  0  0  0  0  0  0  0  0
  1  2  1  0
  2  3  1  0
  2  4  1  0
  2  5  1  0
  5  6  1  0
  5  7  1  0
  7  8  1  0
  7  9  1  0
  9 10  2  0
 10 11  1  0
 11 12  2  0
 12 13  1  0
 13 14  2  0
 14  9  1  0
  1 15  1  0
  1 16  1  0
  1 17  1  0
  3 18  1  0
  3 19  1  0
  3 20  1  0
  4 21  1  0
  4 22  1  0
  4 23  1  0
  5 24  1  1
  6 25  1  0
  6 26  1  0
  7 27  1  6
  8 28  1  0
  8 29  1  0
 10 30  1  0
 11 31  1  0
 12 32  1  0
 13 33  1  0
 14 34  1  0
M  END
