
     RDKit          3D

 36 37  0  0  0  0  0  0  0  0999 V2000
    6.5368   -0.6430   -0.6488 C   0  0  0  0  0  0  0  0  0  0  0  0
    5.0605   -0.7559   -0.4083 C   0  0  0  0  0  0  0  0  0  0  0  0
    4.1526   -0.0985   -1.2462 C   0  0  0  0  0  0  0  0  0  0  0  0
    2.7785   -0.1789   -1.0034 C   0  0  0  0  0  0  0  0  0  0  0  0
    2.2955   -0.9044    0.0887 C   0  0  0  0  0  0  0  0  0  0  0  0
    0.5404   -1.0036    0.3755 S   0  0  0  0  0  0  0  0  0  0  0  0
    0.4198    0.0041    1.8244 C   0  0  0  0  0  0  0  0  0  0  0  0
    0.8722   -0.3852    2.8988 O   0  0  0  0  0  0  0  0  0  0  0  0
   -0.2141    1.3972    1.6544 C   0  0  1  0  0  0  0  0  0  0  0  0
    0.6425    2.2562    0.7965 N   0  0  0  0  0  0  0  0  0  0  0  0
   -1.6544    1.3561    1.1154 C   0  0  0  0  0  0  0  0  0  0  0  0
   -2.6163    0.6387    2.0341 C   0  0  0  0  0  0  0  0  0  0  0  0
   -3.0220    1.2272    3.2402 C   0  0  0  0  0  0  0  0  0  0  0  0
   -3.8991    0.5575    4.0947 C   0  0  0  0  0  0  0  0  0  0  0  0
   -4.3801   -0.7043    3.7524 C   0  0  0  0  0  0  0  0  0  0  0  0
   -3.9868   -1.2967    2.5544 C   0  0  0  0  0  0  0  0  0  0  0  0
   -3.1103   -0.6288    1.6978 C   0  0  0  0  0  0  0  0  0  0  0  0
    3.2001   -1.5551    0.9315 C   0  0  0  0  0  0  0  0  0  0  0  0
    4.5741   -1.4747    0.6896 C   0  0  0  0  0  0  0  0  0  0  0  0
    6.7512   -0.5339   -1.7171 H   0  0  0  0  0  0  0  0  0  0  0  0
    7.0586   -1.5417   -0.3034 H   0  0  0  0  0  0  0  0  0  0  0  0
    6.9371    0.2255   -0.1168 H   0  0  0  0  0  0  0  0  0  0  0  0
    4.5081    0.4797   -2.0962 H   0  0  0  0  0  0  0  0  0  0  0  0
    2.0910    0.3370   -1.6699 H   0  0  0  0  0  0  0  0  0  0  0  0
   -0.2195    1.8543    2.6526 H   0  0  0  0  0  0  0  0  0  0  0  0
    0.2878    3.2119    0.8217 H   0  0  0  0  0  0  0  0  0  0  0  0
    1.5794    2.2945    1.2046 H   0  0  0  0  0  0  0  0  0  0  0  0
   -1.6906    0.9062    0.1154 H   0  0  0  0  0  0  0  0  0  0  0  0
   -2.0273    2.3813    0.9823 H   0  0  0  0  0  0  0  0  0  0  0  0
   -2.6595    2.2124    3.5245 H   0  0  0  0  0  0  0  0  0  0  0  0
   -4.2064    1.0198    5.0292 H   0  0  0  0  0  0  0  0  0  0  0  0
   -5.0611   -1.2265    4.4192 H   0  0  0  0  0  0  0  0  0  0  0  0
   -4.3616   -2.2813    2.2867 H   0  0  0  0  0  0  0  0  0  0  0  0
   -2.8173   -1.1097    0.7668 H   0  0  0  0  0  0  0  0  0  0  0  0
    2.8442   -2.1226    1.7891 H   0  0  0  0  0  0  0  0  0  0  0  0
    5.2608   -1.9796    1.3655 H   0  0  0  0  0  0  0  0  0  0  0  0
  1  2  1  0
  2  3  2  0
  3  4  1  0
  4  5  2  0
  5  6  1  0
  6  7  1  0
  7  8  2  0
  7  9  1  0
  9 10  1  0
  9 11  1  0
 11 12  1  0
 12 13  2  0
 13 14  1  0
 14 15  2  0
 15 16  1  0
 16 17  2  0
  5 18  1  0
 18 19  2  0
 19  2  1  0
 17 12  1  0
  1 20  1  0
  1 21  1  0
  1 22  1  0
  3 23  1  0
  4 24  1  0
  9 25  1  1
 10 26  1  0
 10 27  1  0
 11 28  1  0
 11 29  1  0
 13 30  1  0
 14 31  1  0
 15 32  1  0
 16 33  1  0
 17 34  1  0
 18 35  1  0
 19 36  1  0
M  END
