
     RDKit          3D

 44 44  0  0  0  0  0  0  0  0999 V2000
   -0.1106    3.3483    2.1935 C   0  0  0  0  0  0  0  0  0  0  0  0
    0.0485    1.9195    2.7211 C   0  0  0  0  0  0  0  0  0  0  0  0
    1.3821    1.7921    3.4592 C   0  0  0  0  0  0  0  0  0  0  0  0
   -0.0819    0.9174    1.5558 C   0  0  0  0  0  0  0  0  0  0  0  0
   -0.1251   -0.5414    2.0103 C   0  0  0  0  0  0  0  0  0  0  0  0
   -0.2141   -1.5912    0.8879 C   0  0  0  0  0  0  0  0  0  0  0  0
   -1.4161   -1.5479   -0.0765 C   0  0  1  0  0  0  0  0  0  0  0  0
   -2.6515   -1.2365    0.6492 N   0  0  0  0  0  0  0  0  0  0  0  0
   -1.2878   -0.6234   -1.3088 C   0  0  0  0  0  0  0  0  0  0  0  0
   -0.1961   -1.0528   -2.3221 C   0  0  0  0  0  0  0  0  0  0  0  0
    1.1542   -0.3388   -2.0961 C   0  0  0  0  0  0  0  0  0  0  0  0
    1.3849    0.8173   -3.0630 C   0  0  0  0  0  0  0  0  0  0  0  0
    1.3780    0.3516   -4.5186 C   0  0  0  0  0  0  0  0  0  0  0  0
    0.4291   -0.8195   -4.7725 C   0  0  0  0  0  0  0  0  0  0  0  0
   -0.7116   -0.8436   -3.7637 C   0  0  0  0  0  0  0  0  0  0  0  0
    0.6739    3.5942    1.4696 H   0  0  0  0  0  0  0  0  0  0  0  0
   -1.0799    3.4758    1.6999 H   0  0  0  0  0  0  0  0  0  0  0  0
   -0.0569    4.0741    3.0118 H   0  0  0  0  0  0  0  0  0  0  0  0
   -0.7614    1.7345    3.4381 H   0  0  0  0  0  0  0  0  0  0  0  0
    2.2281    1.8937    2.7710 H   0  0  0  0  0  0  0  0  0  0  0  0
    1.4683    0.8269    3.9667 H   0  0  0  0  0  0  0  0  0  0  0  0
    1.4766    2.5682    4.2265 H   0  0  0  0  0  0  0  0  0  0  0  0
    0.7481    1.0637    0.8565 H   0  0  0  0  0  0  0  0  0  0  0  0
   -1.0069    1.1501    1.0190 H   0  0  0  0  0  0  0  0  0  0  0  0
    0.7807   -0.7713    2.5831 H   0  0  0  0  0  0  0  0  0  0  0  0
   -0.9619   -0.6785    2.7061 H   0  0  0  0  0  0  0  0  0  0  0  0
   -0.2466   -2.5666    1.3952 H   0  0  0  0  0  0  0  0  0  0  0  0
    0.7248   -1.6014    0.3267 H   0  0  0  0  0  0  0  0  0  0  0  0
   -1.5372   -2.5669   -0.4687 H   0  0  0  0  0  0  0  0  0  0  0  0
   -2.7874   -1.9131    1.3994 H   0  0  0  0  0  0  0  0  0  0  0  0
   -3.4523   -1.3341    0.0264 H   0  0  0  0  0  0  0  0  0  0  0  0
   -2.2579   -0.6479   -1.8258 H   0  0  0  0  0  0  0  0  0  0  0  0
   -1.1400    0.4212   -1.0181 H   0  0  0  0  0  0  0  0  0  0  0  0
   -0.0178   -2.1295   -2.1969 H   0  0  0  0  0  0  0  0  0  0  0  0
    1.9636   -1.0687   -2.2295 H   0  0  0  0  0  0  0  0  0  0  0  0
    1.2461    0.0294   -1.0723 H   0  0  0  0  0  0  0  0  0  0  0  0
    0.6025    1.5723   -2.9152 H   0  0  0  0  0  0  0  0  0  0  0  0
    2.3381    1.3109   -2.8419 H   0  0  0  0  0  0  0  0  0  0  0  0
    1.1027    1.1995   -5.1574 H   0  0  0  0  0  0  0  0  0  0  0  0
    2.3902    0.0573   -4.8213 H   0  0  0  0  0  0  0  0  0  0  0  0
    0.9868   -1.7623   -4.7096 H   0  0  0  0  0  0  0  0  0  0  0  0
    0.0342   -0.7582   -5.7928 H   0  0  0  0  0  0  0  0  0  0  0  0
   -1.2734    0.0966   -3.8391 H   0  0  0  0  0  0  0  0  0  0  0  0
   -1.4128   -1.6479   -4.0171 H   0  0  0  0  0  0  0  0  0  0  0  0
  1  2  1  0
  2  3  1  0
  2  4  1  0
  4  5  1  0
  5  6  1  0
  6  7  1  0
  7  8  1  0
  7  9  1  0
  9 10  1  0
 10 11  1  0
 11 12  1  0
 12 13  1  0
 13 14  1  0
 14 15  1  0
 15 10  1  0
  1 16  1  0
  1 17  1  0
  1 18  1  0
  2 19  1  0
  3 20  1  0
  3 21  1  0
  3 22  1  0
  4 23  1  0
  4 24  1  0
  5 25  1  0
  5 26  1  0
  6 27  1  0
  6 28  1  0
  7 29  1  6
  8 30  1  0
  8 31  1  0
  9 32  1  0
  9 33  1  0
 10 34  1  0
 11 35  1  0
 11 36  1  0
 12 37  1  0
 12 38  1  0
 13 39  1  0
 13 40  1  0
 14 41  1  0
 14 42  1  0
 15 43  1  0
 15 44  1  0
M  END
