
     RDKit          3D

 38 38  0  0  0  0  0  0  0  0999 V2000
   -3.9236   -3.4694    1.3094 C   0  0  0  0  0  0  0  0  0  0  0  0
   -2.9295   -2.4574    0.7728 C   0  0  0  0  0  0  0  0  0  0  0  0
   -1.2628   -3.1037    0.7937 S   0  0  0  0  0  6  0  0  0  0  0  0
   -1.1500   -4.1126   -0.2441 O   0  0  0  0  0  0  0  0  0  0  0  0
   -0.9371   -3.4386    2.1694 O   0  0  0  0  0  0  0  0  0  0  0  0
   -0.2128   -1.7304    0.3437 C   0  0  0  0  0  0  0  0  0  0  0  0
   -0.5374   -1.1275   -1.0231 C   0  0  1  0  0  0  0  0  0  0  0  0
   -1.5801   -0.1051   -0.9118 N   0  0  0  0  0  0  0  0  0  0  0  0
    0.7107   -0.6300   -1.7967 C   0  0  0  0  0  0  0  0  0  0  0  0
    1.5122    0.6308   -1.3839 C   0  0  0  0  0  0  0  0  0  0  0  0
    2.0268    0.6707    0.0658 C   0  0  0  0  0  0  0  0  0  0  0  0
    1.3100    1.7037    0.9264 C   0  0  0  0  0  0  0  0  0  0  0  0
    1.4213    3.1158    0.3492 C   0  0  0  0  0  0  0  0  0  0  0  0
    1.5360    3.1509   -1.1750 C   0  0  0  0  0  0  0  0  0  0  0  0
    0.8522    1.9525   -1.8237 C   0  0  0  0  0  0  0  0  0  0  0  0
   -4.9382   -3.0612    1.2736 H   0  0  0  0  0  0  0  0  0  0  0  0
   -3.9041   -4.3913    0.7195 H   0  0  0  0  0  0  0  0  0  0  0  0
   -3.6990   -3.7324    2.3479 H   0  0  0  0  0  0  0  0  0  0  0  0
   -3.1811   -2.2077   -0.2606 H   0  0  0  0  0  0  0  0  0  0  0  0
   -2.9407   -1.5526    1.3870 H   0  0  0  0  0  0  0  0  0  0  0  0
    0.7960   -2.1584    0.3492 H   0  0  0  0  0  0  0  0  0  0  0  0
   -0.2735   -0.9964    1.1537 H   0  0  0  0  0  0  0  0  0  0  0  0
   -0.9615   -1.9204   -1.6516 H   0  0  0  0  0  0  0  0  0  0  0  0
   -1.7817    0.2770   -1.8384 H   0  0  0  0  0  0  0  0  0  0  0  0
   -1.2554    0.6836   -0.3537 H   0  0  0  0  0  0  0  0  0  0  0  0
    0.4086   -0.4877   -2.8447 H   0  0  0  0  0  0  0  0  0  0  0  0
    1.4224   -1.4679   -1.8244 H   0  0  0  0  0  0  0  0  0  0  0  0
    2.4265    0.5620   -1.9955 H   0  0  0  0  0  0  0  0  0  0  0  0
    3.0920    0.9415    0.0441 H   0  0  0  0  0  0  0  0  0  0  0  0
    1.9999   -0.3133    0.5373 H   0  0  0  0  0  0  0  0  0  0  0  0
    1.7188    1.6937    1.9434 H   0  0  0  0  0  0  0  0  0  0  0  0
    0.2530    1.4341    1.0210 H   0  0  0  0  0  0  0  0  0  0  0  0
    0.5456    3.6941    0.6683 H   0  0  0  0  0  0  0  0  0  0  0  0
    2.2932    3.6244    0.7782 H   0  0  0  0  0  0  0  0  0  0  0  0
    2.5958    3.1584   -1.4598 H   0  0  0  0  0  0  0  0  0  0  0  0
    1.1063    4.0849   -1.5547 H   0  0  0  0  0  0  0  0  0  0  0  0
    0.9144    2.0422   -2.9151 H   0  0  0  0  0  0  0  0  0  0  0  0
   -0.2098    1.9869   -1.5744 H   0  0  0  0  0  0  0  0  0  0  0  0
  1  2  1  0
  2  3  1  0
  3  4  2  0
  3  5  2  0
  3  6  1  0
  6  7  1  0
  7  8  1  0
  7  9  1  0
  9 10  1  0
 10 11  1  0
 11 12  1  0
 12 13  1  0
 13 14  1  0
 14 15  1  0
 15 10  1  0
  1 16  1  0
  1 17  1  0
  1 18  1  0
  2 19  1  0
  2 20  1  0
  6 21  1  0
  6 22  1  0
  7 23  1  6
  8 24  1  0
  8 25  1  0
  9 26  1  0
  9 27  1  0
 10 28  1  0
 11 29  1  0
 11 30  1  0
 12 31  1  0
 12 32  1  0
 13 33  1  0
 13 34  1  0
 14 35  1  0
 14 36  1  0
 15 37  1  0
 15 38  1  0
M  END
