
     RDKit          3D

 46 47  0  0  0  0  0  0  0  0999 V2000
    0.1256   -3.0016    0.6250 N   0  0  0  0  0  0  0  0  0  0  0  0
    0.9229   -1.8287    1.0085 C   0  0  2  0  0  0  0  0  0  0  0  0
    0.4319   -1.2428    2.3591 C   0  0  0  0  0  0  0  0  0  0  0  0
   -1.3636   -0.8635    2.4226 S   0  0  0  0  0  0  0  0  0  0  0  0
   -1.3451    0.9358    2.0689 C   0  0  0  0  0  0  0  0  0  0  0  0
   -0.8079    1.7344    3.2687 C   0  0  0  0  0  0  0  0  0  0  0  0
   -1.3677    3.1591    3.3492 C   0  0  0  0  0  0  0  0  0  0  0  0
   -1.7185    3.7115    1.9753 C   0  0  0  0  0  0  0  0  0  0  0  0
   -2.7826    2.8628    1.2780 C   0  0  0  0  0  0  0  0  0  0  0  0
   -2.7582    1.3873    1.6914 C   0  0  0  0  0  0  0  0  0  0  0  0
    0.9355   -0.7697   -0.1147 C   0  0  0  0  0  0  0  0  0  0  0  0
    1.8333   -1.0970   -1.3358 C   0  0  0  0  0  0  0  0  0  0  0  0
    2.0198    0.1601   -2.2115 C   0  0  0  0  0  0  0  0  0  0  0  0
    0.7580    0.5347   -2.9890 C   0  0  0  0  0  0  0  0  0  0  0  0
    0.2390   -0.6336   -3.8221 C   0  0  0  0  0  0  0  0  0  0  0  0
    0.0621   -1.9008   -2.9899 C   0  0  0  0  0  0  0  0  0  0  0  0
    1.3375   -2.2488   -2.2249 C   0  0  0  0  0  0  0  0  0  0  0  0
   -0.8532   -2.7082    0.5564 H   0  0  0  0  0  0  0  0  0  0  0  0
    0.1330   -3.6793    1.3875 H   0  0  0  0  0  0  0  0  0  0  0  0
    1.9549   -2.1662    1.1647 H   0  0  0  0  0  0  0  0  0  0  0  0
    1.0210   -0.3632    2.6351 H   0  0  0  0  0  0  0  0  0  0  0  0
    0.6077   -1.9887    3.1436 H   0  0  0  0  0  0  0  0  0  0  0  0
   -0.6979    1.1065    1.2028 H   0  0  0  0  0  0  0  0  0  0  0  0
   -1.0241    1.2350    4.2216 H   0  0  0  0  0  0  0  0  0  0  0  0
    0.2855    1.7899    3.1938 H   0  0  0  0  0  0  0  0  0  0  0  0
   -2.2678    3.1599    3.9770 H   0  0  0  0  0  0  0  0  0  0  0  0
   -0.6408    3.8112    3.8466 H   0  0  0  0  0  0  0  0  0  0  0  0
   -2.0700    4.7461    2.0589 H   0  0  0  0  0  0  0  0  0  0  0  0
   -0.8124    3.7391    1.3569 H   0  0  0  0  0  0  0  0  0  0  0  0
   -2.6426    2.9465    0.1933 H   0  0  0  0  0  0  0  0  0  0  0  0
   -3.7792    3.2693    1.4889 H   0  0  0  0  0  0  0  0  0  0  0  0
   -3.4358    1.2486    2.5449 H   0  0  0  0  0  0  0  0  0  0  0  0
   -3.1629    0.7861    0.8676 H   0  0  0  0  0  0  0  0  0  0  0  0
    1.3134    0.1654    0.3204 H   0  0  0  0  0  0  0  0  0  0  0  0
   -0.0892   -0.5591   -0.4415 H   0  0  0  0  0  0  0  0  0  0  0  0
    2.8230   -1.3733   -0.9484 H   0  0  0  0  0  0  0  0  0  0  0  0
    2.3388    1.0103   -1.5970 H   0  0  0  0  0  0  0  0  0  0  0  0
    2.8325   -0.0243   -2.9264 H   0  0  0  0  0  0  0  0  0  0  0  0
   -0.0235    0.8678   -2.2962 H   0  0  0  0  0  0  0  0  0  0  0  0
    0.9739    1.3840   -3.6474 H   0  0  0  0  0  0  0  0  0  0  0  0
    0.9444   -0.8345   -4.6381 H   0  0  0  0  0  0  0  0  0  0  0  0
   -0.7146   -0.3610   -4.2882 H   0  0  0  0  0  0  0  0  0  0  0  0
   -0.7735   -1.7725   -2.2927 H   0  0  0  0  0  0  0  0  0  0  0  0
   -0.2060   -2.7336   -3.6502 H   0  0  0  0  0  0  0  0  0  0  0  0
    1.1924   -3.1667   -1.6503 H   0  0  0  0  0  0  0  0  0  0  0  0
    2.1235   -2.4853   -2.9551 H   0  0  0  0  0  0  0  0  0  0  0  0
  1  2  1  0
  2  3  1  0
  3  4  1  0
  4  5  1  0
  5  6  1  0
  6  7  1  0
  7  8  1  0
  8  9  1  0
  9 10  1  0
  2 11  1  0
 11 12  1  0
 12 13  1  0
 13 14  1  0
 14 15  1  0
 15 16  1  0
 16 17  1  0
 10  5  1  0
 17 12  1  0
  1 18  1  0
  1 19  1  0
  2 20  1  1
  3 21  1  0
  3 22  1  0
  5 23  1  0
  6 24  1  0
  6 25  1  0
  7 26  1  0
  7 27  1  0
  8 28  1  0
  8 29  1  0
  9 30  1  0
  9 31  1  0
 10 32  1  0
 10 33  1  0
 11 34  1  0
 11 35  1  0
 12 36  1  0
 13 37  1  0
 13 38  1  0
 14 39  1  0
 14 40  1  0
 15 41  1  0
 15 42  1  0
 16 43  1  0
 16 44  1  0
 17 45  1  0
 17 46  1  0
M  END
