
     RDKit          3D

 35 35  0  0  0  0  0  0  0  0999 V2000
    0.3851    2.0957    2.7406 C   0  0  0  0  0  0  0  0  0  0  0  0
    1.8019    2.1786    2.2009 C   0  0  0  0  0  0  0  0  0  0  0  0
    1.9019    2.6775    0.7557 C   0  0  0  0  0  0  0  0  0  0  0  0
    1.2919    1.7297   -0.2908 C   0  0  0  0  0  0  0  0  0  0  0  0
   -0.1717    2.0317   -0.6739 C   0  0  1  0  0  0  0  0  0  0  0  0
   -0.2005    3.3653   -1.3069 N   0  0  0  0  0  0  0  0  0  0  0  0
   -0.7505    0.9937   -1.6428 C   0  0  0  0  0  0  0  0  0  0  0  0
   -1.4220   -0.4675   -0.8754 S   0  0  0  0  0  6  0  0  0  0  0  0
   -2.1451   -0.0698    0.3179 O   0  0  0  0  0  0  0  0  0  0  0  0
   -2.0959   -1.2286   -1.9127 O   0  0  0  0  0  0  0  0  0  0  0  0
   -0.0364   -1.4540   -0.3728 C   0  0  0  0  0  0  0  0  0  0  0  0
    0.7885   -2.0188   -1.3507 C   0  0  0  0  0  0  0  0  0  0  0  0
    1.8796   -2.7948   -0.9608 C   0  0  0  0  0  0  0  0  0  0  0  0
    2.1339   -3.0122    0.3946 C   0  0  0  0  0  0  0  0  0  0  0  0
    1.2934   -2.4646    1.3655 C   0  0  0  0  0  0  0  0  0  0  0  0
    0.1991   -1.6885    0.9848 C   0  0  0  0  0  0  0  0  0  0  0  0
   -0.1483    3.0408    2.5996 H   0  0  0  0  0  0  0  0  0  0  0  0
   -0.1799    1.2965    2.2544 H   0  0  0  0  0  0  0  0  0  0  0  0
    0.4048    1.8748    3.8128 H   0  0  0  0  0  0  0  0  0  0  0  0
    2.2818    1.1968    2.2896 H   0  0  0  0  0  0  0  0  0  0  0  0
    2.3742    2.8637    2.8382 H   0  0  0  0  0  0  0  0  0  0  0  0
    1.4834    3.6870    0.6808 H   0  0  0  0  0  0  0  0  0  0  0  0
    2.9715    2.7753    0.5279 H   0  0  0  0  0  0  0  0  0  0  0  0
    1.9065    1.7909   -1.2001 H   0  0  0  0  0  0  0  0  0  0  0  0
    1.4006    0.7053    0.0665 H   0  0  0  0  0  0  0  0  0  0  0  0
   -0.7890    2.0935    0.2250 H   0  0  0  0  0  0  0  0  0  0  0  0
   -1.1612    3.6383   -1.5159 H   0  0  0  0  0  0  0  0  0  0  0  0
    0.3037    3.3606   -2.1929 H   0  0  0  0  0  0  0  0  0  0  0  0
   -0.0295    0.6873   -2.4077 H   0  0  0  0  0  0  0  0  0  0  0  0
   -1.6106    1.4252   -2.1722 H   0  0  0  0  0  0  0  0  0  0  0  0
    0.5825   -1.8745   -2.4087 H   0  0  0  0  0  0  0  0  0  0  0  0
    2.5275   -3.2411   -1.7117 H   0  0  0  0  0  0  0  0  0  0  0  0
    2.9828   -3.6220    0.6958 H   0  0  0  0  0  0  0  0  0  0  0  0
    1.4881   -2.6494    2.4194 H   0  0  0  0  0  0  0  0  0  0  0  0
   -0.4570   -1.2756    1.7480 H   0  0  0  0  0  0  0  0  0  0  0  0
  1  2  1  0
  2  3  1  0
  3  4  1  0
  4  5  1  0
  5  6  1  0
  5  7  1  0
  7  8  1  0
  8  9  2  0
  8 10  2  0
  8 11  1  0
 11 12  2  0
 12 13  1  0
 13 14  2  0
 14 15  1  0
 15 16  2  0
 16 11  1  0
  1 17  1  0
  1 18  1  0
  1 19  1  0
  2 20  1  0
  2 21  1  0
  3 22  1  0
  3 23  1  0
  4 24  1  0
  4 25  1  0
  5 26  1  1
  6 27  1  0
  6 28  1  0
  7 29  1  0
  7 30  1  0
 12 31  1  0
 13 32  1  0
 14 33  1  0
 15 34  1  0
 16 35  1  0
M  END
