
     RDKit          3D

 24 23  0  0  0  0  0  0  0  0999 V2000
    0.9400   -1.1031   -0.9616 C   0  0  2  0  0  0  0  0  0  0  0  0
   -0.5275   -1.1224   -0.9823 N   0  0  0  0  0  0  0  0  0  0  0  0
    1.4800   -2.4575   -1.5061 C   0  0  0  0  0  0  0  0  0  0  0  0
    2.9234   -2.4951   -1.7354 N   0  0  0  0  0  0  0  0  0  0  0  0
    1.4579   -0.8029    0.4628 C   0  0  0  0  0  0  0  0  0  0  0  0
    1.2868    0.6570    0.9437 C   0  0  0  0  0  0  0  0  0  0  0  0
   -0.1676    1.0762    1.1559 C   0  0  0  0  0  0  0  0  0  0  0  0
    2.0610    0.8530    2.2530 C   0  0  0  0  0  0  0  0  0  0  0  0
    1.2730   -0.3037   -1.6349 H   0  0  0  0  0  0  0  0  0  0  0  0
   -0.8722   -1.8724   -0.3835 H   0  0  0  0  0  0  0  0  0  0  0  0
   -0.8564   -1.3378   -1.9233 H   0  0  0  0  0  0  0  0  0  0  0  0
    0.9954   -2.6802   -2.4644 H   0  0  0  0  0  0  0  0  0  0  0  0
    1.2112   -3.2714   -0.8221 H   0  0  0  0  0  0  0  0  0  0  0  0
    3.2013   -1.6927   -2.2997 H   0  0  0  0  0  0  0  0  0  0  0  0
    3.4224   -2.4071   -0.8519 H   0  0  0  0  0  0  0  0  0  0  0  0
    2.5306   -1.0268    0.4990 H   0  0  0  0  0  0  0  0  0  0  0  0
    0.9872   -1.4872    1.1820 H   0  0  0  0  0  0  0  0  0  0  0  0
    1.7306    1.3254    0.1949 H   0  0  0  0  0  0  0  0  0  0  0  0
   -0.6992    1.1701    0.2053 H   0  0  0  0  0  0  0  0  0  0  0  0
   -0.7020    0.3578    1.7864 H   0  0  0  0  0  0  0  0  0  0  0  0
   -0.2236    2.0564    1.6425 H   0  0  0  0  0  0  0  0  0  0  0  0
    1.6648    0.2117    3.0478 H   0  0  0  0  0  0  0  0  0  0  0  0
    1.9981    1.8926    2.5922 H   0  0  0  0  0  0  0  0  0  0  0  0
    3.1214    0.6136    2.1198 H   0  0  0  0  0  0  0  0  0  0  0  0
  1  2  1  0
  1  3  1  0
  3  4  1  0
  1  5  1  0
  5  6  1  0
  6  7  1  0
  6  8  1  0
  1  9  1  6
  2 10  1  0
  2 11  1  0
  3 12  1  0
  3 13  1  0
  4 14  1  0
  4 15  1  0
  5 16  1  0
  5 17  1  0
  6 18  1  0
  7 19  1  0
  7 20  1  0
  7 21  1  0
  8 22  1  0
  8 23  1  0
  8 24  1  0
M  END
