
     RDKit          3D

 38 39  0  0  0  0  0  0  0  0999 V2000
   -1.3610   -2.8498    2.3609 C   0  0  0  0  0  0  0  0  0  0  0  0
   -1.7071   -1.7522    1.3456 C   0  0  2  0  0  0  0  0  0  0  0  0
   -3.1716   -1.8184    1.1352 N   0  0  0  0  0  0  0  0  0  0  0  0
   -0.9131   -1.8772    0.0028 C   0  0  1  0  0  0  0  0  0  0  0  0
   -1.3113   -0.9579   -1.1523 C   0  0  0  0  0  0  0  0  0  0  0  0
   -0.9967   -1.3425   -2.4710 C   0  0  0  0  0  0  0  0  0  0  0  0
   -1.3192   -0.5275   -3.5580 C   0  0  0  0  0  0  0  0  0  0  0  0
   -1.9651    0.6866   -3.3489 C   0  0  0  0  0  0  0  0  0  0  0  0
   -2.2918    1.0813   -2.0548 C   0  0  0  0  0  0  0  0  0  0  0  0
   -1.9701    0.2653   -0.9666 C   0  0  0  0  0  0  0  0  0  0  0  0
    0.9293   -1.8761    0.1758 S   0  0  0  0  0  4  0  0  0  0  0  0
    1.3424   -3.1322    0.8867 O   0  0  0  0  0  0  0  0  0  0  0  0
    1.2139   -0.4723    1.2851 C   0  0  0  0  0  0  0  0  0  0  0  0
    0.9901    0.8943    0.6943 C   0  0  0  0  0  0  0  0  0  0  0  0
    0.2213    1.8402    1.3908 C   0  0  0  0  0  0  0  0  0  0  0  0
    0.0285    3.1225    0.8731 C   0  0  0  0  0  0  0  0  0  0  0  0
    0.6112    3.4797   -0.3401 C   0  0  0  0  0  0  0  0  0  0  0  0
    1.3944    2.5589   -1.0318 C   0  0  0  0  0  0  0  0  0  0  0  0
    1.5912    1.2772   -0.5143 C   0  0  0  0  0  0  0  0  0  0  0  0
   -0.3394   -2.7482    2.7358 H   0  0  0  0  0  0  0  0  0  0  0  0
   -2.0128   -2.7946    3.2411 H   0  0  0  0  0  0  0  0  0  0  0  0
   -1.4721   -3.8488    1.9249 H   0  0  0  0  0  0  0  0  0  0  0  0
   -1.5117   -0.7809    1.8093 H   0  0  0  0  0  0  0  0  0  0  0  0
   -3.4151   -2.6934    0.6698 H   0  0  0  0  0  0  0  0  0  0  0  0
   -3.6562   -1.8295    2.0321 H   0  0  0  0  0  0  0  0  0  0  0  0
   -1.1225   -2.8937   -0.3641 H   0  0  0  0  0  0  0  0  0  0  0  0
   -0.4918   -2.2882   -2.6616 H   0  0  0  0  0  0  0  0  0  0  0  0
   -1.0656   -0.8420   -4.5669 H   0  0  0  0  0  0  0  0  0  0  0  0
   -2.2165    1.3239   -4.1920 H   0  0  0  0  0  0  0  0  0  0  0  0
   -2.7971    2.0285   -1.8861 H   0  0  0  0  0  0  0  0  0  0  0  0
   -2.2461    0.6077    0.0271 H   0  0  0  0  0  0  0  0  0  0  0  0
    0.6384   -0.6154    2.2029 H   0  0  0  0  0  0  0  0  0  0  0  0
    2.2678   -0.5295    1.5841 H   0  0  0  0  0  0  0  0  0  0  0  0
   -0.2386    1.5867    2.3436 H   0  0  0  0  0  0  0  0  0  0  0  0
   -0.5761    3.8434    1.4173 H   0  0  0  0  0  0  0  0  0  0  0  0
    0.4589    4.4763   -0.7455 H   0  0  0  0  0  0  0  0  0  0  0  0
    1.8530    2.8374   -1.9771 H   0  0  0  0  0  0  0  0  0  0  0  0
    2.2156    0.5810   -1.0704 H   0  0  0  0  0  0  0  0  0  0  0  0
  1  2  1  0
  2  3  1  0
  2  4  1  0
  4  5  1  0
  5  6  2  0
  6  7  1  0
  7  8  2  0
  8  9  1  0
  9 10  2  0
  4 11  1  0
 11 12  2  0
 11 13  1  1
 13 14  1  0
 14 15  2  0
 15 16  1  0
 16 17  2  0
 17 18  1  0
 18 19  2  0
 10  5  1  0
 19 14  1  0
  1 20  1  0
  1 21  1  0
  1 22  1  0
  2 23  1  1
  3 24  1  0
  3 25  1  0
  4 26  1  6
  6 27  1  0
  7 28  1  0
  8 29  1  0
  9 30  1  0
 10 31  1  0
 13 32  1  0
 13 33  1  0
 15 34  1  0
 16 35  1  0
 17 36  1  0
 18 37  1  0
 19 38  1  0
M  END
