
     RDKit          3D

 52 51  0  0  0  0  0  0  0  0999 V2000
    3.0741    1.2178    1.3193 C   0  0  0  0  0  0  0  0  0  0  0  0
    3.7137    0.9178   -0.0275 C   0  0  0  0  0  0  0  0  0  0  0  0
    2.9876    1.5654   -1.2088 C   0  0  0  0  0  0  0  0  0  0  0  0
    1.5743    1.0179   -1.4242 C   0  0  0  0  0  0  0  0  0  0  0  0
    0.9351    1.6108   -2.6843 C   0  0  0  0  0  0  0  0  0  0  0  0
   -0.4448    1.0208   -2.9900 C   0  0  0  0  0  0  0  0  0  0  0  0
   -1.5244    1.4634   -1.9987 C   0  0  0  0  0  0  0  0  0  0  0  0
   -2.8642    0.7913   -2.3092 C   0  0  0  0  0  0  0  0  0  0  0  0
   -3.9836    1.1803   -1.3430 C   0  0  0  0  0  0  0  0  0  0  0  0
   -3.7604    0.8691    0.1421 C   0  0  0  0  0  0  0  0  0  0  0  0
   -3.6142   -0.6189    0.4904 C   0  0  0  0  0  0  0  0  0  0  0  0
   -2.1626   -1.0982    0.4834 C   0  0  0  0  0  0  0  0  0  0  0  0
   -2.0595   -2.8187    1.0830 S   0  0  0  0  0  0  0  0  0  0  0  0
   -0.3639   -3.2417    0.5369 C   0  0  0  0  0  0  0  0  0  0  0  0
    0.7527   -2.3684    1.1296 C   0  0  2  0  0  0  0  0  0  0  0  0
    2.0797   -2.7272    0.5888 N   0  0  0  0  0  0  0  0  0  0  0  0
    0.8081   -2.3603    2.6694 C   0  0  0  0  0  0  0  0  0  0  0  0
    0.9714   -1.2955    3.2795 O   0  0  0  0  0  0  0  0  0  0  0  0
    0.6306   -3.6502    3.4405 C   0  0  0  0  0  0  0  0  0  0  0  0
    1.8471   -4.8543    2.9844 Cl  0  0  0  0  0  0  0  0  0  0  0  0
    2.0760    0.7781    1.3979 H   0  0  0  0  0  0  0  0  0  0  0  0
    3.6841    0.7991    2.1262 H   0  0  0  0  0  0  0  0  0  0  0  0
    2.9906    2.2969    1.4826 H   0  0  0  0  0  0  0  0  0  0  0  0
    3.7671   -0.1672   -0.1727 H   0  0  0  0  0  0  0  0  0  0  0  0
    4.7467    1.2854   -0.0114 H   0  0  0  0  0  0  0  0  0  0  0  0
    2.9451    2.6518   -1.0641 H   0  0  0  0  0  0  0  0  0  0  0  0
    3.5830    1.3898   -2.1133 H   0  0  0  0  0  0  0  0  0  0  0  0
    0.9565    1.2516   -0.5519 H   0  0  0  0  0  0  0  0  0  0  0  0
    1.6140   -0.0743   -1.5134 H   0  0  0  0  0  0  0  0  0  0  0  0
    1.5893    1.4099   -3.5418 H   0  0  0  0  0  0  0  0  0  0  0  0
    0.8612    2.7008   -2.5899 H   0  0  0  0  0  0  0  0  0  0  0  0
   -0.7414    1.3353   -3.9983 H   0  0  0  0  0  0  0  0  0  0  0  0
   -0.3777   -0.0739   -3.0074 H   0  0  0  0  0  0  0  0  0  0  0  0
   -1.6402    2.5529   -2.0442 H   0  0  0  0  0  0  0  0  0  0  0  0
   -1.2128    1.2183   -0.9808 H   0  0  0  0  0  0  0  0  0  0  0  0
   -2.7517   -0.2979   -2.3267 H   0  0  0  0  0  0  0  0  0  0  0  0
   -3.1751    1.0766   -3.3225 H   0  0  0  0  0  0  0  0  0  0  0  0
   -4.1672    2.2581   -1.4398 H   0  0  0  0  0  0  0  0  0  0  0  0
   -4.9071    0.6859   -1.6699 H   0  0  0  0  0  0  0  0  0  0  0  0
   -4.6461    1.2429    0.6734 H   0  0  0  0  0  0  0  0  0  0  0  0
   -2.9163    1.4453    0.5370 H   0  0  0  0  0  0  0  0  0  0  0  0
   -4.0210   -0.7576    1.5012 H   0  0  0  0  0  0  0  0  0  0  0  0
   -4.2295   -1.2265   -0.1843 H   0  0  0  0  0  0  0  0  0  0  0  0
   -1.7453   -1.0657   -0.5237 H   0  0  0  0  0  0  0  0  0  0  0  0
   -1.5572   -0.4643    1.1383 H   0  0  0  0  0  0  0  0  0  0  0  0
   -0.2053   -4.2958    0.7874 H   0  0  0  0  0  0  0  0  0  0  0  0
   -0.3482   -3.1793   -0.5575 H   0  0  0  0  0  0  0  0  0  0  0  0
    0.5806   -1.3299    0.8241 H   0  0  0  0  0  0  0  0  0  0  0  0
    2.0650   -2.7077   -0.4299 H   0  0  0  0  0  0  0  0  0  0  0  0
    2.3303   -3.6807    0.8594 H   0  0  0  0  0  0  0  0  0  0  0  0
    0.7512   -3.4482    4.5089 H   0  0  0  0  0  0  0  0  0  0  0  0
   -0.3663   -4.0649    3.2826 H   0  0  0  0  0  0  0  0  0  0  0  0
  1  2  1  0
  2  3  1  0
  3  4  1  0
  4  5  1  0
  5  6  1  0
  6  7  1  0
  7  8  1  0
  8  9  1  0
  9 10  1  0
 10 11  1  0
 11 12  1  0
 12 13  1  0
 13 14  1  0
 14 15  1  0
 15 16  1  0
 15 17  1  0
 17 18  2  0
 17 19  1  0
 19 20  1  0
  1 21  1  0
  1 22  1  0
  1 23  1  0
  2 24  1  0
  2 25  1  0
  3 26  1  0
  3 27  1  0
  4 28  1  0
  4 29  1  0
  5 30  1  0
  5 31  1  0
  6 32  1  0
  6 33  1  0
  7 34  1  0
  7 35  1  0
  8 36  1  0
  8 37  1  0
  9 38  1  0
  9 39  1  0
 10 40  1  0
 10 41  1  0
 11 42  1  0
 11 43  1  0
 12 44  1  0
 12 45  1  0
 14 46  1  0
 14 47  1  0
 15 48  1  6
 16 49  1  0
 16 50  1  0
 19 51  1  0
 19 52  1  0
M  END
