
     RDKit          3D

 30 30  0  0  0  0  0  0  0  0999 V2000
   -2.0528    0.3797   -1.3996 C   0  0  0  0  0  0  0  0  0  0  0  0
   -2.3136    0.4579    0.1061 C   0  0  0  0  0  0  0  0  0  0  0  0
   -3.1753    1.6877    0.4150 C   0  0  0  0  0  0  0  0  0  0  0  0
   -1.0190    0.3574    0.9655 C   0  0  2  0  0  0  0  0  0  0  0  0
   -1.4181    0.1446    2.3749 N   0  0  0  0  0  0  0  0  0  0  0  0
   -0.0578    1.5715    0.9174 C   0  0  0  0  0  0  0  0  0  0  0  0
    0.9809    1.7025   -0.5874 S   0  0  0  0  0  0  0  0  0  0  0  0
    2.0166    0.2627   -0.4064 C   0  0  0  0  0  0  0  0  0  0  0  0
    2.8621    0.1039    0.6984 C   0  0  0  0  0  0  0  0  0  0  0  0
    3.6672   -1.0319    0.8097 C   0  0  0  0  0  0  0  0  0  0  0  0
    3.6309   -1.9987   -0.1880 C   0  0  0  0  0  0  0  0  0  0  0  0
    4.4029   -3.0875   -0.0799 F   0  0  0  0  0  0  0  0  0  0  0  0
    2.8094   -1.8489   -1.2986 C   0  0  0  0  0  0  0  0  0  0  0  0
    2.0047   -0.7132   -1.4108 C   0  0  0  0  0  0  0  0  0  0  0  0
   -1.3837   -0.4519   -1.6422 H   0  0  0  0  0  0  0  0  0  0  0  0
   -2.9930    0.2106   -1.9370 H   0  0  0  0  0  0  0  0  0  0  0  0
   -1.6252    1.3060   -1.7923 H   0  0  0  0  0  0  0  0  0  0  0  0
   -2.9249   -0.4247    0.3459 H   0  0  0  0  0  0  0  0  0  0  0  0
   -2.6828    2.6158    0.1085 H   0  0  0  0  0  0  0  0  0  0  0  0
   -3.4099    1.7589    1.4815 H   0  0  0  0  0  0  0  0  0  0  0  0
   -4.1271    1.6301   -0.1250 H   0  0  0  0  0  0  0  0  0  0  0  0
   -0.4802   -0.5496    0.6666 H   0  0  0  0  0  0  0  0  0  0  0  0
   -0.5957   -0.0943    2.9291 H   0  0  0  0  0  0  0  0  0  0  0  0
   -2.0363   -0.6650    2.4332 H   0  0  0  0  0  0  0  0  0  0  0  0
    0.6262    1.5448    1.7737 H   0  0  0  0  0  0  0  0  0  0  0  0
   -0.6133    2.5094    1.0157 H   0  0  0  0  0  0  0  0  0  0  0  0
    2.9129    0.8653    1.4726 H   0  0  0  0  0  0  0  0  0  0  0  0
    4.3263   -1.1637    1.6619 H   0  0  0  0  0  0  0  0  0  0  0  0
    2.8030   -2.6116   -2.0706 H   0  0  0  0  0  0  0  0  0  0  0  0
    1.3687   -0.5968   -2.2856 H   0  0  0  0  0  0  0  0  0  0  0  0
  1  2  1  0
  2  3  1  0
  2  4  1  0
  4  5  1  0
  4  6  1  0
  6  7  1  0
  7  8  1  0
  8  9  2  0
  9 10  1  0
 10 11  2  0
 11 12  1  0
 11 13  1  0
 13 14  2  0
 14  8  1  0
  1 15  1  0
  1 16  1  0
  1 17  1  0
  2 18  1  0
  3 19  1  0
  3 20  1  0
  3 21  1  0
  4 22  1  6
  5 23  1  0
  5 24  1  0
  6 25  1  0
  6 26  1  0
  9 27  1  0
 10 28  1  0
 13 29  1  0
 14 30  1  0
M  END
