
     RDKit          3D

 29 29  0  0  0  0  0  0  0  0999 V2000
    0.3238   -1.7521    3.1419 N   0  0  0  0  0  0  0  0  0  0  0  0
    0.4520   -1.0356    1.8641 C   0  0  2  0  0  0  0  0  0  0  0  0
    1.6647   -0.0865    1.9544 C   0  0  0  0  0  0  0  0  0  0  0  0
    2.3511    0.2416    0.6297 C   0  0  0  0  0  0  0  0  0  0  0  0
    3.2768   -1.1078   -0.0787 S   0  0  0  0  0  6  0  0  0  0  0  0
    2.0436   -2.1196   -1.3619 Cl  0  0  0  0  0  0  0  0  0  0  0  0
    4.3002   -0.5488   -0.9397 O   0  0  0  0  0  0  0  0  0  0  0  0
    3.6082   -2.0666    0.9561 O   0  0  0  0  0  0  0  0  0  0  0  0
   -0.8869   -0.3036    1.6028 C   0  0  0  0  0  0  0  0  0  0  0  0
   -1.0011    0.3306    0.2391 C   0  0  0  0  0  0  0  0  0  0  0  0
   -0.9466    1.7238    0.0929 C   0  0  0  0  0  0  0  0  0  0  0  0
   -1.0326    2.3045   -1.1730 C   0  0  0  0  0  0  0  0  0  0  0  0
   -1.1806    1.5008   -2.3016 C   0  0  0  0  0  0  0  0  0  0  0  0
   -1.2506    0.1162   -2.1659 C   0  0  0  0  0  0  0  0  0  0  0  0
   -1.1660   -0.4668   -0.9013 C   0  0  0  0  0  0  0  0  0  0  0  0
    1.1642   -2.3079    3.3128 H   0  0  0  0  0  0  0  0  0  0  0  0
    0.2574   -1.0939    3.9183 H   0  0  0  0  0  0  0  0  0  0  0  0
    0.6111   -1.7945    1.0946 H   0  0  0  0  0  0  0  0  0  0  0  0
    2.4237   -0.5088    2.6262 H   0  0  0  0  0  0  0  0  0  0  0  0
    1.3510    0.8533    2.4274 H   0  0  0  0  0  0  0  0  0  0  0  0
    3.0926    1.0277    0.8177 H   0  0  0  0  0  0  0  0  0  0  0  0
    1.6791    0.6225   -0.1389 H   0  0  0  0  0  0  0  0  0  0  0  0
   -1.7213   -1.0121    1.7058 H   0  0  0  0  0  0  0  0  0  0  0  0
   -1.0556    0.4560    2.3784 H   0  0  0  0  0  0  0  0  0  0  0  0
   -0.8356    2.3677    0.9633 H   0  0  0  0  0  0  0  0  0  0  0  0
   -0.9903    3.3858   -1.2788 H   0  0  0  0  0  0  0  0  0  0  0  0
   -1.2521    1.9543   -3.2870 H   0  0  0  0  0  0  0  0  0  0  0  0
   -1.3798   -0.5112   -3.0447 H   0  0  0  0  0  0  0  0  0  0  0  0
   -1.2353   -1.5496   -0.8108 H   0  0  0  0  0  0  0  0  0  0  0  0
  1  2  1  0
  2  3  1  0
  3  4  1  0
  4  5  1  0
  5  6  1  0
  5  7  2  0
  5  8  2  0
  2  9  1  0
  9 10  1  0
 10 11  2  0
 11 12  1  0
 12 13  2  0
 13 14  1  0
 14 15  2  0
 15 10  1  0
  1 16  1  0
  1 17  1  0
  2 18  1  6
  3 19  1  0
  3 20  1  0
  4 21  1  0
  4 22  1  0
  9 23  1  0
  9 24  1  0
 11 25  1  0
 12 26  1  0
 13 27  1  0
 14 28  1  0
 15 29  1  0
M  END
