
     RDKit          3D

 35 36  0  0  0  0  0  0  0  0999 V2000
   -3.5219    0.4686    0.4083 N   0  0  0  0  0  0  0  0  0  0  0  0
   -2.1497   -0.0413    0.4432 C   0  0  2  0  0  0  0  0  0  0  0  0
   -1.4948    0.3786    1.7689 C   0  0  0  0  0  0  0  0  0  0  0  0
   -0.0639   -0.1441    1.9633 C   0  0  0  0  0  0  0  0  0  0  0  0
    0.0306   -1.6494    2.0061 C   0  0  0  0  0  0  0  0  0  0  0  0
    0.5781   -2.3570    0.9275 C   0  0  0  0  0  0  0  0  0  0  0  0
    0.6514   -3.7503    0.9598 C   0  0  0  0  0  0  0  0  0  0  0  0
    0.1801   -4.4488    2.0697 C   0  0  0  0  0  0  0  0  0  0  0  0
   -0.3641   -3.7549    3.1487 C   0  0  0  0  0  0  0  0  0  0  0  0
   -0.4389   -2.3616    3.1180 C   0  0  0  0  0  0  0  0  0  0  0  0
   -1.4243    0.4918   -0.7183 C   0  0  0  0  0  0  0  0  0  0  0  0
   -0.8235    0.9183   -1.6675 C   0  0  0  0  0  0  0  0  0  0  0  0
   -0.1050    1.4295   -2.7931 C   0  0  0  0  0  0  0  0  0  0  0  0
   -0.2392    2.7713   -3.1566 C   0  0  0  0  0  0  0  0  0  0  0  0
    0.4637    3.2716   -4.2544 C   0  0  0  0  0  0  0  0  0  0  0  0
    1.3005    2.4314   -4.9889 C   0  0  0  0  0  0  0  0  0  0  0  0
    1.4356    1.0908   -4.6274 C   0  0  0  0  0  0  0  0  0  0  0  0
    0.7331    0.5892   -3.5297 C   0  0  0  0  0  0  0  0  0  0  0  0
   -4.0608    0.0193    1.1457 H   0  0  0  0  0  0  0  0  0  0  0  0
   -3.9507    0.1838   -0.4713 H   0  0  0  0  0  0  0  0  0  0  0  0
   -2.1961   -1.1337    0.3748 H   0  0  0  0  0  0  0  0  0  0  0  0
   -2.1176    0.0355    2.6062 H   0  0  0  0  0  0  0  0  0  0  0  0
   -1.4639    1.4751    1.8371 H   0  0  0  0  0  0  0  0  0  0  0  0
    0.5979    0.2547    1.1849 H   0  0  0  0  0  0  0  0  0  0  0  0
    0.3322    0.2498    2.9086 H   0  0  0  0  0  0  0  0  0  0  0  0
    0.9497   -1.8266    0.0532 H   0  0  0  0  0  0  0  0  0  0  0  0
    1.0781   -4.2906    0.1188 H   0  0  0  0  0  0  0  0  0  0  0  0
    0.2395   -5.5336    2.0948 H   0  0  0  0  0  0  0  0  0  0  0  0
   -0.7284   -4.2990    4.0161 H   0  0  0  0  0  0  0  0  0  0  0  0
   -0.8629   -1.8337    3.9693 H   0  0  0  0  0  0  0  0  0  0  0  0
   -0.8904    3.4312   -2.5882 H   0  0  0  0  0  0  0  0  0  0  0  0
    0.3577    4.3161   -4.5358 H   0  0  0  0  0  0  0  0  0  0  0  0
    1.8473    2.8215   -5.8435 H   0  0  0  0  0  0  0  0  0  0  0  0
    2.0873    0.4362   -5.2001 H   0  0  0  0  0  0  0  0  0  0  0  0
    0.8427   -0.4566   -3.2544 H   0  0  0  0  0  0  0  0  0  0  0  0
  1  2  1  0
  2  3  1  0
  3  4  1  0
  4  5  1  0
  5  6  2  0
  6  7  1  0
  7  8  2  0
  8  9  1  0
  9 10  2  0
  2 11  1  0
 11 12  3  0
 12 13  1  0
 13 14  2  0
 14 15  1  0
 15 16  2  0
 16 17  1  0
 17 18  2  0
 10  5  1  0
 18 13  1  0
  1 19  1  0
  1 20  1  0
  2 21  1  6
  3 22  1  0
  3 23  1  0
  4 24  1  0
  4 25  1  0
  6 26  1  0
  7 27  1  0
  8 28  1  0
  9 29  1  0
 10 30  1  0
 14 31  1  0
 15 32  1  0
 16 33  1  0
 17 34  1  0
 18 35  1  0
M  END
