
     RDKit          3D

 41 41  0  0  0  0  0  0  0  0999 V2000
   -3.4739   -1.5956    0.7328 C   0  0  0  0  0  0  0  0  0  0  0  0
   -1.9583   -1.4863    0.6649 C   0  0  0  0  0  0  0  0  0  0  0  0
   -1.2824   -2.6886    1.3263 C   0  0  0  0  0  0  0  0  0  0  0  0
    0.2440   -2.6767    1.1882 C   0  0  0  0  0  0  0  0  0  0  0  0
    0.9068   -1.5287    1.9515 C   0  0  0  0  0  0  0  0  0  0  0  0
    2.4362   -1.6001    2.0061 C   0  0  0  0  0  0  0  0  0  0  0  0
    3.2472   -1.4285    0.7041 C   0  0  1  0  0  0  0  0  0  0  0  0
    3.1274   -2.5805   -0.1860 N   0  0  0  0  0  0  0  0  0  0  0  0
    3.0131   -0.0926   -0.0290 C   0  0  0  0  0  0  0  0  0  0  0  0
    1.8584   -0.0631   -1.0386 C   0  0  0  0  0  0  0  0  0  0  0  0
    1.6474    1.3280   -1.5899 C   0  0  0  0  0  0  0  0  0  0  0  0
    0.7474    2.2058   -0.9707 C   0  0  0  0  0  0  0  0  0  0  0  0
    0.5639    3.4967   -1.4681 C   0  0  0  0  0  0  0  0  0  0  0  0
    1.2804    3.9228   -2.5851 C   0  0  0  0  0  0  0  0  0  0  0  0
    2.1818    3.0592   -3.2048 C   0  0  0  0  0  0  0  0  0  0  0  0
    2.3667    1.7677   -2.7089 C   0  0  0  0  0  0  0  0  0  0  0  0
   -3.8176   -1.6394    1.7712 H   0  0  0  0  0  0  0  0  0  0  0  0
   -3.8265   -2.4934    0.2153 H   0  0  0  0  0  0  0  0  0  0  0  0
   -3.9380   -0.7257    0.2575 H   0  0  0  0  0  0  0  0  0  0  0  0
   -1.6503   -1.4160   -0.3847 H   0  0  0  0  0  0  0  0  0  0  0  0
   -1.6522   -0.5573    1.1574 H   0  0  0  0  0  0  0  0  0  0  0  0
   -1.6598   -3.6096    0.8646 H   0  0  0  0  0  0  0  0  0  0  0  0
   -1.5572   -2.7327    2.3872 H   0  0  0  0  0  0  0  0  0  0  0  0
    0.6295   -3.6298    1.5707 H   0  0  0  0  0  0  0  0  0  0  0  0
    0.4987   -2.6334    0.1250 H   0  0  0  0  0  0  0  0  0  0  0  0
    0.5979   -0.5583    1.5531 H   0  0  0  0  0  0  0  0  0  0  0  0
    0.5424   -1.5519    2.9872 H   0  0  0  0  0  0  0  0  0  0  0  0
    2.7240   -2.5485    2.4803 H   0  0  0  0  0  0  0  0  0  0  0  0
    2.7694   -0.8184    2.7029 H   0  0  0  0  0  0  0  0  0  0  0  0
    4.2968   -1.4090    1.0300 H   0  0  0  0  0  0  0  0  0  0  0  0
    3.8012   -2.4994   -0.9467 H   0  0  0  0  0  0  0  0  0  0  0  0
    3.3671   -3.4330    0.3191 H   0  0  0  0  0  0  0  0  0  0  0  0
    2.8826    0.7039    0.7154 H   0  0  0  0  0  0  0  0  0  0  0  0
    3.9355    0.1596   -0.5717 H   0  0  0  0  0  0  0  0  0  0  0  0
    2.0615   -0.7456   -1.8733 H   0  0  0  0  0  0  0  0  0  0  0  0
    0.9213   -0.4069   -0.5949 H   0  0  0  0  0  0  0  0  0  0  0  0
    0.1837    1.8864   -0.0970 H   0  0  0  0  0  0  0  0  0  0  0  0
   -0.1383    4.1699   -0.9836 H   0  0  0  0  0  0  0  0  0  0  0  0
    1.1366    4.9279   -2.9722 H   0  0  0  0  0  0  0  0  0  0  0  0
    2.7415    3.3912   -4.0751 H   0  0  0  0  0  0  0  0  0  0  0  0
    3.0745    1.1044   -3.2005 H   0  0  0  0  0  0  0  0  0  0  0  0
  1  2  1  0
  2  3  1  0
  3  4  1  0
  4  5  1  0
  5  6  1  0
  6  7  1  0
  7  8  1  0
  7  9  1  0
  9 10  1  0
 10 11  1  0
 11 12  2  0
 12 13  1  0
 13 14  2  0
 14 15  1  0
 15 16  2  0
 16 11  1  0
  1 17  1  0
  1 18  1  0
  1 19  1  0
  2 20  1  0
  2 21  1  0
  3 22  1  0
  3 23  1  0
  4 24  1  0
  4 25  1  0
  5 26  1  0
  5 27  1  0
  6 28  1  0
  6 29  1  0
  7 30  1  1
  8 31  1  0
  8 32  1  0
  9 33  1  0
  9 34  1  0
 10 35  1  0
 10 36  1  0
 12 37  1  0
 13 38  1  0
 14 39  1  0
 15 40  1  0
 16 41  1  0
M  END
