
     RDKit          3D

 64 63  0  0  0  0  0  0  0  0999 V2000
    1.0321   -0.7722   -4.0772 C   0  0  0  0  0  0  0  0  0  0  0  0
    2.1250    0.2857   -4.0957 C   0  0  0  0  0  0  0  0  0  0  0  0
    1.8271    1.4538   -3.1529 C   0  0  0  0  0  0  0  0  0  0  0  0
    2.7665    1.5660   -1.9454 C   0  0  0  0  0  0  0  0  0  0  0  0
    2.5017    0.5724   -0.8089 C   0  0  0  0  0  0  0  0  0  0  0  0
    3.2441   -0.7607   -0.9585 C   0  0  0  0  0  0  0  0  0  0  0  0
    3.1071   -1.6658    0.2744 C   0  0  0  0  0  0  0  0  0  0  0  0
    1.9891   -2.7128    0.1923 C   0  0  0  0  0  0  0  0  0  0  0  0
    0.5867   -2.1218    0.0701 C   0  0  0  0  0  0  0  0  0  0  0  0
   -0.4871   -3.2085    0.0967 C   0  0  0  0  0  0  0  0  0  0  0  0
   -1.9197   -2.6670    0.0020 C   0  0  0  0  0  0  0  0  0  0  0  0
   -2.2458   -1.9637   -1.3243 C   0  0  0  0  0  0  0  0  0  0  0  0
   -2.1218   -0.4361   -1.2776 C   0  0  0  0  0  0  0  0  0  0  0  0
   -3.2717    0.2297   -0.5173 C   0  0  0  0  0  0  0  0  0  0  0  0
   -3.0594    1.7138   -0.4149 C   0  0  0  0  0  0  0  0  0  0  0  0
   -2.5353    2.3825    0.6258 C   0  0  0  0  0  0  0  0  0  0  0  0
   -2.0234    1.8005    1.9165 C   0  0  0  0  0  0  0  0  0  0  0  0
   -0.5050    1.9764    2.0291 C   0  0  0  0  0  0  0  0  0  0  0  0
    0.0807    1.2994    3.2762 C   0  0  2  0  0  0  0  0  0  0  0  0
   -0.4675    1.8712    4.5185 N   0  0  0  0  0  0  0  0  0  0  0  0
    1.6277    1.4020    3.2847 C   0  0  0  0  0  0  0  0  0  0  0  0
    2.1888    0.9254    4.5562 N   0  0  0  0  0  0  0  0  0  0  0  0
    0.8981   -1.1917   -3.0781 H   0  0  0  0  0  0  0  0  0  0  0  0
    0.0745   -0.3494   -4.4001 H   0  0  0  0  0  0  0  0  0  0  0  0
    1.2859   -1.5920   -4.7578 H   0  0  0  0  0  0  0  0  0  0  0  0
    2.1951    0.6723   -5.1198 H   0  0  0  0  0  0  0  0  0  0  0  0
    3.0957   -0.1697   -3.8752 H   0  0  0  0  0  0  0  0  0  0  0  0
    0.7819    1.4423   -2.8162 H   0  0  0  0  0  0  0  0  0  0  0  0
    1.9448    2.3789   -3.7353 H   0  0  0  0  0  0  0  0  0  0  0  0
    2.6197    2.5715   -1.5286 H   0  0  0  0  0  0  0  0  0  0  0  0
    3.8145    1.5218   -2.2666 H   0  0  0  0  0  0  0  0  0  0  0  0
    1.4245    0.4202   -0.6916 H   0  0  0  0  0  0  0  0  0  0  0  0
    2.8472    1.0450    0.1204 H   0  0  0  0  0  0  0  0  0  0  0  0
    4.3124   -0.5388   -1.0923 H   0  0  0  0  0  0  0  0  0  0  0  0
    2.9233   -1.2998   -1.8556 H   0  0  0  0  0  0  0  0  0  0  0  0
    2.9918   -1.0679    1.1854 H   0  0  0  0  0  0  0  0  0  0  0  0
    4.0503   -2.2161    0.3883 H   0  0  0  0  0  0  0  0  0  0  0  0
    2.0389   -3.3355    1.0946 H   0  0  0  0  0  0  0  0  0  0  0  0
    2.1801   -3.3791   -0.6586 H   0  0  0  0  0  0  0  0  0  0  0  0
    0.5179   -1.5850   -0.8772 H   0  0  0  0  0  0  0  0  0  0  0  0
    0.4115   -1.4062    0.8820 H   0  0  0  0  0  0  0  0  0  0  0  0
   -0.3130   -3.9177   -0.7219 H   0  0  0  0  0  0  0  0  0  0  0  0
   -0.3982   -3.7795    1.0297 H   0  0  0  0  0  0  0  0  0  0  0  0
   -2.1248   -2.0193    0.8608 H   0  0  0  0  0  0  0  0  0  0  0  0
   -2.5935   -3.5283    0.0981 H   0  0  0  0  0  0  0  0  0  0  0  0
   -3.2734   -2.2178   -1.6150 H   0  0  0  0  0  0  0  0  0  0  0  0
   -1.5990   -2.3541   -2.1197 H   0  0  0  0  0  0  0  0  0  0  0  0
   -2.1170   -0.0596   -2.3086 H   0  0  0  0  0  0  0  0  0  0  0  0
   -1.1639   -0.1428   -0.8366 H   0  0  0  0  0  0  0  0  0  0  0  0
   -4.2165    0.0519   -1.0469 H   0  0  0  0  0  0  0  0  0  0  0  0
   -3.4011   -0.2155    0.4729 H   0  0  0  0  0  0  0  0  0  0  0  0
   -3.3686    2.2894   -1.2871 H   0  0  0  0  0  0  0  0  0  0  0  0
   -2.4563    3.4665    0.5440 H   0  0  0  0  0  0  0  0  0  0  0  0
   -2.2720    0.7389    2.0089 H   0  0  0  0  0  0  0  0  0  0  0  0
   -2.5300    2.3130    2.7430 H   0  0  0  0  0  0  0  0  0  0  0  0
   -0.0275    1.5469    1.1384 H   0  0  0  0  0  0  0  0  0  0  0  0
   -0.2546    3.0458    2.0306 H   0  0  0  0  0  0  0  0  0  0  0  0
   -0.1868    0.2352    3.2614 H   0  0  0  0  0  0  0  0  0  0  0  0
    0.1448    1.5355    5.2714 H   0  0  0  0  0  0  0  0  0  0  0  0
   -0.2991    2.8772    4.5181 H   0  0  0  0  0  0  0  0  0  0  0  0
    2.0425    0.8118    2.4617 H   0  0  0  0  0  0  0  0  0  0  0  0
    1.9398    2.4427    3.1413 H   0  0  0  0  0  0  0  0  0  0  0  0
    3.2065    0.9400    4.4947 H   0  0  0  0  0  0  0  0  0  0  0  0
    1.9285   -0.0519    4.6881 H   0  0  0  0  0  0  0  0  0  0  0  0
  1  2  1  0
  2  3  1  0
  3  4  1  0
  4  5  1  0
  5  6  1  0
  6  7  1  0
  7  8  1  0
  8  9  1  0
  9 10  1  0
 10 11  1  0
 11 12  1  0
 12 13  1  0
 13 14  1  0
 14 15  1  0
 15 16  2  0
 16 17  1  0
 17 18  1  0
 18 19  1  0
 19 20  1  0
 19 21  1  0
 21 22  1  0
  1 23  1  0
  1 24  1  0
  1 25  1  0
  2 26  1  0
  2 27  1  0
  3 28  1  0
  3 29  1  0
  4 30  1  0
  4 31  1  0
  5 32  1  0
  5 33  1  0
  6 34  1  0
  6 35  1  0
  7 36  1  0
  7 37  1  0
  8 38  1  0
  8 39  1  0
  9 40  1  0
  9 41  1  0
 10 42  1  0
 10 43  1  0
 11 44  1  0
 11 45  1  0
 12 46  1  0
 12 47  1  0
 13 48  1  0
 13 49  1  0
 14 50  1  0
 14 51  1  0
 15 52  1  0
 16 53  1  0
 17 54  1  0
 17 55  1  0
 18 56  1  0
 18 57  1  0
 19 58  1  6
 20 59  1  0
 20 60  1  0
 21 61  1  0
 21 62  1  0
 22 63  1  0
 22 64  1  0
M  END
