
     RDKit          3D

 24 23  0  0  0  0  0  0  0  0999 V2000
   -0.4593    2.0347    0.1201 C   0  0  0  0  0  0  0  0  0  0  0  0
    0.4367    0.8657    0.5434 C   0  0  0  0  0  0  0  0  0  0  0  0
    1.3797    0.5004   -0.6090 C   0  0  0  0  0  0  0  0  0  0  0  0
   -0.3900   -0.3273    1.1050 C   0  0  2  0  0  0  0  0  0  0  0  0
    0.5104   -1.3534    1.6477 N   0  0  0  0  0  0  0  0  0  0  0  0
   -1.3892   -0.9473    0.1373 C   0  0  0  0  0  0  0  0  0  0  0  0
   -2.8317   -0.5889    0.3835 C   0  0  0  0  0  0  0  0  0  0  0  0
   -1.0584   -1.7770   -0.8176 C   0  0  0  0  0  0  0  0  0  0  0  0
   -0.7228   -2.6040   -1.7597 C   0  0  0  0  0  0  0  0  0  0  0  0
   -1.0706    1.7828   -0.7525 H   0  0  0  0  0  0  0  0  0  0  0  0
    0.1475    2.9083   -0.1422 H   0  0  0  0  0  0  0  0  0  0  0  0
   -1.1274    2.3295    0.9360 H   0  0  0  0  0  0  0  0  0  0  0  0
    1.0676    1.2364    1.3642 H   0  0  0  0  0  0  0  0  0  0  0  0
    2.0401   -0.3306   -0.3431 H   0  0  0  0  0  0  0  0  0  0  0  0
    0.8304    0.2296   -1.5156 H   0  0  0  0  0  0  0  0  0  0  0  0
    2.0181    1.3549   -0.8605 H   0  0  0  0  0  0  0  0  0  0  0  0
   -0.9560    0.0554    1.9656 H   0  0  0  0  0  0  0  0  0  0  0  0
   -0.0492   -2.1033    2.0495 H   0  0  0  0  0  0  0  0  0  0  0  0
    1.0568   -0.9561    2.4084 H   0  0  0  0  0  0  0  0  0  0  0  0
   -3.4910   -1.0155   -0.3805 H   0  0  0  0  0  0  0  0  0  0  0  0
   -2.9708    0.4961    0.3728 H   0  0  0  0  0  0  0  0  0  0  0  0
   -3.1556   -0.9715    1.3569 H   0  0  0  0  0  0  0  0  0  0  0  0
   -1.4188   -2.8580   -2.5497 H   0  0  0  0  0  0  0  0  0  0  0  0
    0.2663   -3.0473   -1.7690 H   0  0  0  0  0  0  0  0  0  0  0  0
  1  2  1  0
  2  3  1  0
  2  4  1  0
  4  5  1  0
  4  6  1  0
  6  7  1  0
  6  8  2  0
  8  9  2  0
  1 10  1  0
  1 11  1  0
  1 12  1  0
  2 13  1  0
  3 14  1  0
  3 15  1  0
  3 16  1  0
  4 17  1  1
  5 18  1  0
  5 19  1  0
  7 20  1  0
  7 21  1  0
  7 22  1  0
  9 23  1  0
  9 24  1  0
M  END
