
     RDKit          3D

 24 23  0  0  0  0  0  0  0  0999 V2000
    2.0022   -0.5464   -2.5575 C   0  0  0  0  0  0  0  0  0  0  0  0
    0.9236    0.2067   -1.7672 C   0  0  0  0  0  0  0  0  0  0  0  0
   -0.4174    0.0971   -2.5010 C   0  0  0  0  0  0  0  0  0  0  0  0
    0.8648   -0.2573   -0.2829 C   0  0  2  0  0  0  0  0  0  0  0  0
    0.4765   -1.6719   -0.1705 N   0  0  0  0  0  0  0  0  0  0  0  0
   -0.0809    0.5926    0.6004 C   0  0  0  0  0  0  0  0  0  0  0  0
    0.3275    2.0365    0.6973 C   0  0  0  0  0  0  0  0  0  0  0  0
   -0.3755    3.0388    0.2580 C   0  0  0  0  0  0  0  0  0  0  0  0
   -1.0783    4.0345   -0.1863 C   0  0  0  0  0  0  0  0  0  0  0  0
    2.9690   -0.4934   -2.0461 H   0  0  0  0  0  0  0  0  0  0  0  0
    1.7452   -1.6009   -2.7001 H   0  0  0  0  0  0  0  0  0  0  0  0
    2.1288   -0.1017   -3.5508 H   0  0  0  0  0  0  0  0  0  0  0  0
    1.2178    1.2640   -1.7806 H   0  0  0  0  0  0  0  0  0  0  0  0
   -0.3188    0.4493   -3.5338 H   0  0  0  0  0  0  0  0  0  0  0  0
   -0.7770   -0.9364   -2.5369 H   0  0  0  0  0  0  0  0  0  0  0  0
   -1.1869    0.7110   -2.0243 H   0  0  0  0  0  0  0  0  0  0  0  0
    1.8770   -0.1684    0.1347 H   0  0  0  0  0  0  0  0  0  0  0  0
    1.1580   -2.2567   -0.6514 H   0  0  0  0  0  0  0  0  0  0  0  0
    0.4996   -1.9585    0.8076 H   0  0  0  0  0  0  0  0  0  0  0  0
   -0.0761    0.1894    1.6222 H   0  0  0  0  0  0  0  0  0  0  0  0
   -1.1172    0.5085    0.2501 H   0  0  0  0  0  0  0  0  0  0  0  0
    1.2765    2.2470    1.1825 H   0  0  0  0  0  0  0  0  0  0  0  0
   -1.2480    4.9104    0.4289 H   0  0  0  0  0  0  0  0  0  0  0  0
   -1.5163    4.0017   -1.1772 H   0  0  0  0  0  0  0  0  0  0  0  0
  1  2  1  0
  2  3  1  0
  2  4  1  0
  4  5  1  0
  4  6  1  0
  6  7  1  0
  7  8  2  0
  8  9  2  0
  1 10  1  0
  1 11  1  0
  1 12  1  0
  2 13  1  0
  3 14  1  0
  3 15  1  0
  3 16  1  0
  4 17  1  1
  5 18  1  0
  5 19  1  0
  6 20  1  0
  6 21  1  0
  7 22  1  0
  9 23  1  0
  9 24  1  0
M  END
