
     RDKit          3D

 27 26  0  0  0  0  0  0  0  0999 V2000
    0.4585   -1.4598   -2.5409 C   0  0  0  0  0  0  0  0  0  0  0  0
    1.7595   -1.0483   -1.8550 C   0  0  0  0  0  0  0  0  0  0  0  0
    2.4473    0.0754   -2.6276 C   0  0  0  0  0  0  0  0  0  0  0  0
    1.6023   -0.7504   -0.3466 C   0  0  0  0  0  0  0  0  0  0  0  0
    1.1251    0.6536    0.0846 C   0  0  2  0  0  0  0  0  0  0  0  0
    1.3432    0.7777    1.5391 N   0  0  0  0  0  0  0  0  0  0  0  0
   -0.3314    1.0149   -0.2849 C   0  0  0  0  0  0  0  0  0  0  0  0
   -1.3874    0.1055    0.2834 C   0  0  0  0  0  0  0  0  0  0  0  0
   -2.3027   -0.5011   -0.4141 C   0  0  0  0  0  0  0  0  0  0  0  0
   -3.2159   -1.1071   -1.1081 C   0  0  0  0  0  0  0  0  0  0  0  0
    0.6698   -1.8742   -3.5332 H   0  0  0  0  0  0  0  0  0  0  0  0
   -0.0610   -2.2339   -1.9674 H   0  0  0  0  0  0  0  0  0  0  0  0
   -0.2203   -0.6175   -2.6866 H   0  0  0  0  0  0  0  0  0  0  0  0
    2.4187   -1.9259   -1.9171 H   0  0  0  0  0  0  0  0  0  0  0  0
    1.8127    0.9641   -2.7032 H   0  0  0  0  0  0  0  0  0  0  0  0
    3.3875    0.3619   -2.1451 H   0  0  0  0  0  0  0  0  0  0  0  0
    2.6827   -0.2483   -3.6474 H   0  0  0  0  0  0  0  0  0  0  0  0
    0.9704   -1.5236    0.1100 H   0  0  0  0  0  0  0  0  0  0  0  0
    2.6004   -0.9004    0.0926 H   0  0  0  0  0  0  0  0  0  0  0  0
    1.7770    1.4039   -0.3767 H   0  0  0  0  0  0  0  0  0  0  0  0
    0.8335    0.0430    2.0278 H   0  0  0  0  0  0  0  0  0  0  0  0
    0.9643    1.6635    1.8712 H   0  0  0  0  0  0  0  0  0  0  0  0
   -0.4265    1.0808   -1.3737 H   0  0  0  0  0  0  0  0  0  0  0  0
   -0.5438    2.0293    0.0800 H   0  0  0  0  0  0  0  0  0  0  0  0
   -1.4408    0.0240    1.3649 H   0  0  0  0  0  0  0  0  0  0  0  0
   -4.2155   -0.6956   -1.1863 H   0  0  0  0  0  0  0  0  0  0  0  0
   -2.9933   -2.0339   -1.6242 H   0  0  0  0  0  0  0  0  0  0  0  0
  1  2  1  0
  2  3  1  0
  2  4  1  0
  4  5  1  0
  5  6  1  0
  5  7  1  0
  7  8  1  0
  8  9  2  0
  9 10  2  0
  1 11  1  0
  1 12  1  0
  1 13  1  0
  2 14  1  0
  3 15  1  0
  3 16  1  0
  3 17  1  0
  4 18  1  0
  4 19  1  0
  5 20  1  6
  6 21  1  0
  6 22  1  0
  7 23  1  0
  7 24  1  0
  8 25  1  0
 10 26  1  0
 10 27  1  0
M  END
