
     RDKit          3D

 28 28  0  0  0  0  0  0  0  0999 V2000
   -2.6353    0.6532   -2.3101 N   0  0  0  0  0  0  0  0  0  0  0  0
   -1.7074    0.8126   -1.1696 C   0  0  2  0  0  0  0  0  0  0  0  0
   -1.6283    2.3147   -0.8077 C   0  0  0  0  0  0  0  0  0  0  0  0
   -1.0549    2.5956    0.5525 C   0  0  0  0  0  0  0  0  0  0  0  0
   -1.7447    2.6325    1.6552 C   0  0  0  0  0  0  0  0  0  0  0  0
   -2.4284    2.6653    2.7570 C   0  0  0  0  0  0  0  0  0  0  0  0
   -0.3429    0.1995   -1.5706 C   0  0  0  0  0  0  0  0  0  0  0  0
    0.6647    0.0435   -0.4556 C   0  0  0  0  0  0  0  0  0  0  0  0
    0.3854   -0.7572    0.6607 C   0  0  0  0  0  0  0  0  0  0  0  0
    1.3249   -0.9011    1.6831 C   0  0  0  0  0  0  0  0  0  0  0  0
    2.5562   -0.2550    1.5965 C   0  0  0  0  0  0  0  0  0  0  0  0
    2.8513    0.5319    0.4855 C   0  0  0  0  0  0  0  0  0  0  0  0
    1.9128    0.6776   -0.5374 C   0  0  0  0  0  0  0  0  0  0  0  0
   -3.5566    1.0000   -2.0419 H   0  0  0  0  0  0  0  0  0  0  0  0
   -2.7575   -0.3396   -2.5087 H   0  0  0  0  0  0  0  0  0  0  0  0
   -2.1357    0.2566   -0.3268 H   0  0  0  0  0  0  0  0  0  0  0  0
   -1.0376    2.8533   -1.5598 H   0  0  0  0  0  0  0  0  0  0  0  0
   -2.6342    2.7564   -0.8442 H   0  0  0  0  0  0  0  0  0  0  0  0
    0.0187    2.7489    0.6154 H   0  0  0  0  0  0  0  0  0  0  0  0
   -3.2583    3.3525    2.8722 H   0  0  0  0  0  0  0  0  0  0  0  0
   -2.1697    2.0166    3.5857 H   0  0  0  0  0  0  0  0  0  0  0  0
   -0.5006   -0.8045   -1.9898 H   0  0  0  0  0  0  0  0  0  0  0  0
    0.0937    0.7920   -2.3861 H   0  0  0  0  0  0  0  0  0  0  0  0
   -0.5668   -1.2755    0.7435 H   0  0  0  0  0  0  0  0  0  0  0  0
    1.0959   -1.5195    2.5469 H   0  0  0  0  0  0  0  0  0  0  0  0
    3.2870   -0.3680    2.3928 H   0  0  0  0  0  0  0  0  0  0  0  0
    3.8136    1.0319    0.4141 H   0  0  0  0  0  0  0  0  0  0  0  0
    2.1618    1.2940   -1.3985 H   0  0  0  0  0  0  0  0  0  0  0  0
  1  2  1  0
  2  3  1  0
  3  4  1  0
  4  5  2  0
  5  6  2  0
  2  7  1  0
  7  8  1  0
  8  9  2  0
  9 10  1  0
 10 11  2  0
 11 12  1  0
 12 13  2  0
 13  8  1  0
  1 14  1  0
  1 15  1  0
  2 16  1  1
  3 17  1  0
  3 18  1  0
  4 19  1  0
  6 20  1  0
  6 21  1  0
  7 22  1  0
  7 23  1  0
  9 24  1  0
 10 25  1  0
 11 26  1  0
 12 27  1  0
 13 28  1  0
M  END
