
     RDKit          3D

 42 41  0  0  0  0  0  0  0  0999 V2000
    1.4802   -2.9007    2.8451 C   0  0  0  0  0  0  0  0  0  0  0  0
    1.7372   -1.4465    2.4791 C   0  0  0  0  0  0  0  0  0  0  0  0
    3.1786   -1.0420    2.7807 C   0  0  0  0  0  0  0  0  0  0  0  0
    3.4686    0.4515    2.5927 C   0  0  0  0  0  0  0  0  0  0  0  0
    3.3151    0.9581    1.1544 C   0  0  0  0  0  0  0  0  0  0  0  0
    1.9543    1.6113    0.8934 C   0  0  0  0  0  0  0  0  0  0  0  0
    1.8379    2.0869   -0.5588 C   0  0  0  0  0  0  0  0  0  0  0  0
    0.5110    2.7946   -0.8514 C   0  0  0  0  0  0  0  0  0  0  0  0
   -0.6723    1.8710   -0.7725 C   0  0  0  0  0  0  0  0  0  0  0  0
   -1.6818    2.0280    0.0970 C   0  0  0  0  0  0  0  0  0  0  0  0
   -2.8090    1.1260    0.1613 C   0  0  0  0  0  0  0  0  0  0  0  0
   -3.8149    1.2846    1.0370 C   0  0  0  0  0  0  0  0  0  0  0  0
   -5.0353    0.4196    1.1961 C   0  0  1  0  0  0  0  0  0  0  0  0
   -5.1401   -0.7819    0.2549 C   0  0  0  0  0  0  0  0  0  0  0  0
   -5.0833   -0.0375    2.5848 N   0  0  0  0  0  0  0  0  0  0  0  0
    0.4459   -3.1726    2.6125 H   0  0  0  0  0  0  0  0  0  0  0  0
    2.1418   -3.5689    2.2845 H   0  0  0  0  0  0  0  0  0  0  0  0
    1.6437   -3.0716    3.9139 H   0  0  0  0  0  0  0  0  0  0  0  0
    1.5249   -1.3163    1.4128 H   0  0  0  0  0  0  0  0  0  0  0  0
    1.0434   -0.8081    3.0377 H   0  0  0  0  0  0  0  0  0  0  0  0
    3.4141   -1.3022    3.8205 H   0  0  0  0  0  0  0  0  0  0  0  0
    3.8616   -1.6269    2.1520 H   0  0  0  0  0  0  0  0  0  0  0  0
    2.8541    1.0433    3.2815 H   0  0  0  0  0  0  0  0  0  0  0  0
    4.5111    0.6138    2.8958 H   0  0  0  0  0  0  0  0  0  0  0  0
    4.0910    1.7131    0.9733 H   0  0  0  0  0  0  0  0  0  0  0  0
    3.4965    0.1469    0.4395 H   0  0  0  0  0  0  0  0  0  0  0  0
    1.1490    0.9070    1.1184 H   0  0  0  0  0  0  0  0  0  0  0  0
    1.8272    2.4674    1.5673 H   0  0  0  0  0  0  0  0  0  0  0  0
    1.9624    1.2341   -1.2381 H   0  0  0  0  0  0  0  0  0  0  0  0
    2.6564    2.7850   -0.7746 H   0  0  0  0  0  0  0  0  0  0  0  0
    0.3917    3.6470   -0.1716 H   0  0  0  0  0  0  0  0  0  0  0  0
    0.5487    3.2082   -1.8665 H   0  0  0  0  0  0  0  0  0  0  0  0
   -0.6812    1.0417   -1.4766 H   0  0  0  0  0  0  0  0  0  0  0  0
   -1.6659    2.8608    0.7976 H   0  0  0  0  0  0  0  0  0  0  0  0
   -2.8107    0.2936   -0.5374 H   0  0  0  0  0  0  0  0  0  0  0  0
   -3.7839    2.1328    1.7210 H   0  0  0  0  0  0  0  0  0  0  0  0
   -5.9102    1.0581    1.0242 H   0  0  0  0  0  0  0  0  0  0  0  0
   -4.3062   -1.4805    0.3888 H   0  0  0  0  0  0  0  0  0  0  0  0
   -5.1506   -0.4595   -0.7922 H   0  0  0  0  0  0  0  0  0  0  0  0
   -6.0692   -1.3357    0.4328 H   0  0  0  0  0  0  0  0  0  0  0  0
   -5.9216   -0.5984    2.7258 H   0  0  0  0  0  0  0  0  0  0  0  0
   -4.2975   -0.6656    2.7514 H   0  0  0  0  0  0  0  0  0  0  0  0
  1  2  1  0
  2  3  1  0
  3  4  1  0
  4  5  1  0
  5  6  1  0
  6  7  1  0
  7  8  1  0
  8  9  1  0
  9 10  2  0
 10 11  1  0
 11 12  2  0
 12 13  1  0
 13 14  1  0
 13 15  1  0
  1 16  1  0
  1 17  1  0
  1 18  1  0
  2 19  1  0
  2 20  1  0
  3 21  1  0
  3 22  1  0
  4 23  1  0
  4 24  1  0
  5 25  1  0
  5 26  1  0
  6 27  1  0
  6 28  1  0
  7 29  1  0
  7 30  1  0
  8 31  1  0
  8 32  1  0
  9 33  1  0
 10 34  1  0
 11 35  1  0
 12 36  1  0
 13 37  1  6
 14 38  1  0
 14 39  1  0
 14 40  1  0
 15 41  1  0
 15 42  1  0
M  END
