
     RDKit          3D

 44 43  0  0  0  0  0  0  0  0999 V2000
   -2.5060    0.4002    3.0352 C   0  0  0  0  0  0  0  0  0  0  0  0
   -2.1356   -0.9417    2.4252 C   0  0  0  0  0  0  0  0  0  0  0  0
   -3.1345   -1.3708    1.3889 C   0  0  0  0  0  0  0  0  0  0  0  0
   -2.9799   -1.3423    0.0543 C   0  0  0  0  0  0  0  0  0  0  0  0
   -1.7987   -0.8227   -0.7148 C   0  0  0  0  0  0  0  0  0  0  0  0
   -1.0513   -1.9428   -1.3783 C   0  0  0  0  0  0  0  0  0  0  0  0
   -0.8493   -2.1420   -2.6916 C   0  0  0  0  0  0  0  0  0  0  0  0
   -1.3536   -1.3142   -3.8399 C   0  0  0  0  0  0  0  0  0  0  0  0
   -0.2385   -0.7448   -4.7278 C   0  0  0  0  0  0  0  0  0  0  0  0
    0.4147    0.5391   -4.1993 C   0  0  0  0  0  0  0  0  0  0  0  0
    1.2834    0.3376   -2.9915 C   0  0  0  0  0  0  0  0  0  0  0  0
    1.1135    1.0017   -1.8384 C   0  0  0  0  0  0  0  0  0  0  0  0
    1.9384    0.7793   -0.6746 C   0  0  0  0  0  0  0  0  0  0  0  0
    1.7229    1.3989    0.4966 C   0  0  0  0  0  0  0  0  0  0  0  0
    2.5491    1.1772    1.7280 C   0  0  1  0  0  0  0  0  0  0  0  0
    3.2425    2.4685    2.1552 C   0  0  0  0  0  0  0  0  0  0  0  0
    1.6721    0.7142    2.7995 N   0  0  0  0  0  0  0  0  0  0  0  0
   -1.7815    0.6769    3.8078 H   0  0  0  0  0  0  0  0  0  0  0  0
   -2.5101    1.1908    2.2772 H   0  0  0  0  0  0  0  0  0  0  0  0
   -3.4978    0.3660    3.4987 H   0  0  0  0  0  0  0  0  0  0  0  0
   -1.1219   -0.8924    2.0163 H   0  0  0  0  0  0  0  0  0  0  0  0
   -2.1064   -1.7036    3.2131 H   0  0  0  0  0  0  0  0  0  0  0  0
   -4.0730   -1.7606    1.7816 H   0  0  0  0  0  0  0  0  0  0  0  0
   -3.8010   -1.7105   -0.5600 H   0  0  0  0  0  0  0  0  0  0  0  0
   -2.1609   -0.0843   -1.4360 H   0  0  0  0  0  0  0  0  0  0  0  0
   -1.1057   -0.2810   -0.0645 H   0  0  0  0  0  0  0  0  0  0  0  0
   -0.6043   -2.6585   -0.6886 H   0  0  0  0  0  0  0  0  0  0  0  0
   -0.2656   -3.0168   -2.9777 H   0  0  0  0  0  0  0  0  0  0  0  0
   -1.9700   -1.9796   -4.4583 H   0  0  0  0  0  0  0  0  0  0  0  0
   -2.0184   -0.5081   -3.5167 H   0  0  0  0  0  0  0  0  0  0  0  0
    0.5263   -1.5077   -4.9218 H   0  0  0  0  0  0  0  0  0  0  0  0
   -0.6841   -0.5035   -5.7019 H   0  0  0  0  0  0  0  0  0  0  0  0
   -0.3621    1.2889   -4.0048 H   0  0  0  0  0  0  0  0  0  0  0  0
    1.0491    0.9515   -4.9939 H   0  0  0  0  0  0  0  0  0  0  0  0
    2.0824   -0.3941   -3.0880 H   0  0  0  0  0  0  0  0  0  0  0  0
    0.3090    1.7290   -1.7487 H   0  0  0  0  0  0  0  0  0  0  0  0
    2.7532    0.0648   -0.7680 H   0  0  0  0  0  0  0  0  0  0  0  0
    0.9017    2.1069    0.5937 H   0  0  0  0  0  0  0  0  0  0  0  0
    3.3146    0.4128    1.5483 H   0  0  0  0  0  0  0  0  0  0  0  0
    2.5220    3.2648    2.3771 H   0  0  0  0  0  0  0  0  0  0  0  0
    3.8514    2.3079    3.0521 H   0  0  0  0  0  0  0  0  0  0  0  0
    3.9085    2.8326    1.3645 H   0  0  0  0  0  0  0  0  0  0  0  0
    1.2829   -0.1890    2.5314 H   0  0  0  0  0  0  0  0  0  0  0  0
    2.2257    0.5455    3.6374 H   0  0  0  0  0  0  0  0  0  0  0  0
  1  2  1  0
  2  3  1  0
  3  4  2  0
  4  5  1  0
  5  6  1  0
  6  7  2  0
  7  8  1  0
  8  9  1  0
  9 10  1  0
 10 11  1  0
 11 12  2  0
 12 13  1  0
 13 14  2  0
 14 15  1  0
 15 16  1  0
 15 17  1  0
  1 18  1  0
  1 19  1  0
  1 20  1  0
  2 21  1  0
  2 22  1  0
  3 23  1  0
  4 24  1  0
  5 25  1  0
  5 26  1  0
  6 27  1  0
  7 28  1  0
  8 29  1  0
  8 30  1  0
  9 31  1  0
  9 32  1  0
 10 33  1  0
 10 34  1  0
 11 35  1  0
 12 36  1  0
 13 37  1  0
 14 38  1  0
 15 39  1  6
 16 40  1  0
 16 41  1  0
 16 42  1  0
 17 43  1  0
 17 44  1  0
M  END
