
     RDKit          3D

 19 18  0  0  0  0  0  0  0  0999 V2000
   -0.2402    1.6178   -1.5459 N   0  0  0  0  0  0  0  0  0  0  0  0
   -0.0501    0.2242   -2.0217 C   0  0  2  0  0  0  0  0  0  0  0  0
   -1.3490   -0.5978   -2.0856 C   0  0  0  0  0  0  0  0  0  0  0  0
   -2.2971   -0.4929   -0.8869 C   0  0  0  0  0  0  0  0  0  0  0  0
   -1.6993   -0.9257    0.3810 C   0  0  0  0  0  0  0  0  0  0  0  0
   -1.2164   -1.2819    1.4210 C   0  0  0  0  0  0  0  0  0  0  0  0
    1.0774   -0.4706   -1.2240 C   0  0  0  0  0  0  0  0  0  0  0  0
    2.0403    0.3879   -0.7667 N   0  0  0  0  0  0  0  0  0  0  0  0
    1.1810   -1.6808   -1.0631 O   0  0  0  0  0  0  0  0  0  0  0  0
   -0.5871    1.5856   -0.5853 H   0  0  0  0  0  0  0  0  0  0  0  0
   -0.9805    2.0527   -2.0963 H   0  0  0  0  0  0  0  0  0  0  0  0
    0.3429    0.2918   -3.0450 H   0  0  0  0  0  0  0  0  0  0  0  0
   -1.1069   -1.6546   -2.2574 H   0  0  0  0  0  0  0  0  0  0  0  0
   -1.9123   -0.2686   -2.9694 H   0  0  0  0  0  0  0  0  0  0  0  0
   -2.6679    0.5339   -0.7891 H   0  0  0  0  0  0  0  0  0  0  0  0
   -3.1794   -1.1122   -1.0909 H   0  0  0  0  0  0  0  0  0  0  0  0
   -0.7756   -1.6140    2.3327 H   0  0  0  0  0  0  0  0  0  0  0  0
    2.7621    0.0258   -0.1616 H   0  0  0  0  0  0  0  0  0  0  0  0
    1.8257    1.3796   -0.7743 H   0  0  0  0  0  0  0  0  0  0  0  0
  1  2  1  0
  2  3  1  0
  3  4  1  0
  4  5  1  0
  5  6  3  0
  2  7  1  0
  7  8  1  0
  7  9  2  0
  1 10  1  0
  1 11  1  0
  2 12  1  6
  3 13  1  0
  3 14  1  0
  4 15  1  0
  4 16  1  0
  6 17  1  0
  8 18  1  0
  8 19  1  0
M  END
