
     RDKit          3D

 24 23  0  0  0  0  0  0  0  0999 V2000
   -0.9394    1.2285    2.1499 C   0  0  0  0  0  0  0  0  0  0  0  0
   -0.9206    1.4190    0.6568 C   0  0  0  0  0  0  0  0  0  0  0  0
   -1.9663    1.9607    0.0106 C   0  0  0  0  0  0  0  0  0  0  0  0
    0.3759    1.0726   -0.0556 C   0  0  0  0  0  0  0  0  0  0  0  0
    0.4699   -0.2939   -0.7869 C   0  0  1  0  0  0  0  0  0  0  0  0
   -0.5084   -0.4093   -1.9632 C   0  0  0  0  0  0  0  0  0  0  0  0
    1.8408   -0.3967   -1.3737 N   0  0  0  0  0  0  0  0  0  0  0  0
    0.3000   -1.4801    0.2074 C   0  0  0  0  0  0  0  0  0  0  0  0
   -0.9693   -1.8360    0.5565 N   0  0  0  0  0  0  0  0  0  0  0  0
    1.2552   -2.0897    0.6886 O   0  0  0  0  0  0  0  0  0  0  0  0
   -1.9118    1.4855    2.5835 H   0  0  0  0  0  0  0  0  0  0  0  0
   -0.1860    1.8688    2.6204 H   0  0  0  0  0  0  0  0  0  0  0  0
   -0.7231    0.1912    2.4180 H   0  0  0  0  0  0  0  0  0  0  0  0
   -2.8737    2.2501    0.5333 H   0  0  0  0  0  0  0  0  0  0  0  0
   -1.9369    2.1531   -1.0584 H   0  0  0  0  0  0  0  0  0  0  0  0
    1.1898    1.1424    0.6810 H   0  0  0  0  0  0  0  0  0  0  0  0
    0.5863    1.8740   -0.7797 H   0  0  0  0  0  0  0  0  0  0  0  0
   -0.3468    0.3897   -2.6963 H   0  0  0  0  0  0  0  0  0  0  0  0
   -0.3928   -1.3689   -2.4821 H   0  0  0  0  0  0  0  0  0  0  0  0
   -1.5533   -0.3546   -1.6429 H   0  0  0  0  0  0  0  0  0  0  0  0
    1.9201   -1.3077   -1.8311 H   0  0  0  0  0  0  0  0  0  0  0  0
    2.4962   -0.4745   -0.5888 H   0  0  0  0  0  0  0  0  0  0  0  0
   -1.0519   -2.5377    1.2809 H   0  0  0  0  0  0  0  0  0  0  0  0
   -1.7426   -1.1941    0.4398 H   0  0  0  0  0  0  0  0  0  0  0  0
  1  2  1  0
  2  3  2  3
  2  4  1  0
  4  5  1  0
  5  6  1  0
  5  7  1  6
  5  8  1  0
  8  9  1  0
  8 10  2  0
  1 11  1  0
  1 12  1  0
  1 13  1  0
  3 14  1  0
  3 15  1  0
  4 16  1  0
  4 17  1  0
  6 18  1  0
  6 19  1  0
  6 20  1  0
  7 21  1  0
  7 22  1  0
  9 23  1  0
  9 24  1  0
M  END
