
     RDKit          3D

 30 30  0  0  0  0  0  0  0  0999 V2000
    2.0116   -2.5126   -2.8417 C   0  0  0  0  0  0  0  0  0  0  0  0
    2.2401   -2.2396   -1.3563 C   0  0  0  0  0  0  0  0  0  0  0  0
    1.2602   -2.9537   -0.4961 C   0  0  0  0  0  0  0  0  0  0  0  0
    2.2916   -0.7651   -1.1802 C   0  0  2  0  0  0  0  0  0  0  0  0
    3.4004   -0.2319   -1.9902 N   0  0  0  0  0  0  0  0  0  0  0  0
    2.5116   -0.2796    0.2060 C   0  0  0  0  0  0  0  0  0  0  0  0
    1.2081   -0.7810    1.4960 Se  0  0  0  0  0  2  0  0  0  0  0  0
   -0.2723    0.3710    1.6320 C   0  0  0  0  0  0  0  0  0  0  0  0
   -1.4649   -0.0511    2.1768 C   0  0  0  0  0  0  0  0  0  0  0  0
   -2.5282    0.8238    2.2591 C   0  0  0  0  0  0  0  0  0  0  0  0
   -2.4507    2.1264    1.8127 C   0  0  0  0  0  0  0  0  0  0  0  0
   -1.2498    2.5282    1.2717 C   0  0  0  0  0  0  0  0  0  0  0  0
   -0.1787    1.6699    1.1813 C   0  0  0  0  0  0  0  0  0  0  0  0
    0.9678   -2.8291   -3.0082 H   0  0  0  0  0  0  0  0  0  0  0  0
    2.6527   -3.3452   -3.2034 H   0  0  0  0  0  0  0  0  0  0  0  0
    2.3030   -1.6269   -3.4572 H   0  0  0  0  0  0  0  0  0  0  0  0
    3.2509   -2.6707   -1.1367 H   0  0  0  0  0  0  0  0  0  0  0  0
    0.9590   -3.9299   -0.9635 H   0  0  0  0  0  0  0  0  0  0  0  0
    0.3126   -2.3601   -0.4072 H   0  0  0  0  0  0  0  0  0  0  0  0
    1.5950   -3.1887    0.5086 H   0  0  0  0  0  0  0  0  0  0  0  0
    1.3802   -0.2645   -1.5942 H   0  0  0  0  0  0  0  0  0  0  0  0
    4.2286   -0.8491   -1.9649 H   0  0  0  0  0  0  0  0  0  0  0  0
    3.5824    0.7597   -1.7733 H   0  0  0  0  0  0  0  0  0  0  0  0
    3.5689   -0.5388    0.5056 H   0  0  0  0  0  0  0  0  0  0  0  0
    2.5300    0.8499    0.1503 H   0  0  0  0  0  0  0  0  0  0  0  0
   -1.5857   -1.0811    2.5501 H   0  0  0  0  0  0  0  0  0  0  0  0
   -3.4421    0.4506    2.6926 H   0  0  0  0  0  0  0  0  0  0  0  0
   -3.3016    2.8128    1.8831 H   0  0  0  0  0  0  0  0  0  0  0  0
   -1.2035    3.5605    0.9231 H   0  0  0  0  0  0  0  0  0  0  0  0
    0.7565    2.0328    0.7439 H   0  0  0  0  0  0  0  0  0  0  0  0
  1  2  1  0
  2  3  1  0
  2  4  1  0
  4  5  1  0
  4  6  1  0
  6  7  1  0
  7  8  1  0
  8  9  2  0
  9 10  1  0
 10 11  2  0
 11 12  1  0
 12 13  2  0
 13  8  1  0
  1 14  1  0
  1 15  1  0
  1 16  1  0
  2 17  1  0
  3 18  1  0
  3 19  1  0
  3 20  1  0
  4 21  1  6
  5 22  1  0
  5 23  1  0
  6 24  1  0
  6 25  1  0
  9 26  1  0
 10 27  1  0
 11 28  1  0
 12 29  1  0
 13 30  1  0
M  END
