
     RDKit          3D

 25 24  0  0  0  0  0  0  0  0999 V2000
    2.9550   -4.1833   -0.4644 C   0  0  0  0  0  0  0  0  0  0  0  0
    2.2736   -2.9549   -0.0560 C   0  0  0  0  0  0  0  0  0  0  0  0
    1.7118   -1.9473    0.2789 C   0  0  0  0  0  0  0  0  0  0  0  0
    1.0260   -0.7122    0.6886 C   0  0  0  0  0  0  0  0  0  0  0  0
   -0.3948   -1.0053    1.1703 C   0  0  0  0  0  0  0  0  0  0  0  0
   -1.1002    0.2160    1.7745 C   0  0  0  0  0  0  0  0  0  0  0  0
   -1.2529    1.4209    0.8352 C   0  0  1  0  0  0  0  0  0  0  0  0
   -1.9893    1.0515   -0.3908 N   0  0  0  0  0  0  0  0  0  0  0  0
   -1.9916    2.5840    1.5340 C   0  0  0  0  0  0  0  0  0  0  0  0
   -2.1220    3.7123    0.7642 N   0  0  0  0  0  0  0  0  0  0  0  0
   -2.4502    2.5487    2.6692 O   0  0  0  0  0  0  0  0  0  0  0  0
    4.0383   -4.0848   -0.3469 H   0  0  0  0  0  0  0  0  0  0  0  0
    2.6234   -5.0319    0.1414 H   0  0  0  0  0  0  0  0  0  0  0  0
    2.7467   -4.4132   -1.5137 H   0  0  0  0  0  0  0  0  0  0  0  0
    1.5978   -0.2290    1.4893 H   0  0  0  0  0  0  0  0  0  0  0  0
    1.0052   -0.0188   -0.1590 H   0  0  0  0  0  0  0  0  0  0  0  0
   -0.3646   -1.7906    1.9376 H   0  0  0  0  0  0  0  0  0  0  0  0
   -0.9909   -1.4150    0.3452 H   0  0  0  0  0  0  0  0  0  0  0  0
   -2.0898   -0.1027    2.1294 H   0  0  0  0  0  0  0  0  0  0  0  0
   -0.5506    0.5319    2.6711 H   0  0  0  0  0  0  0  0  0  0  0  0
   -0.2639    1.7991    0.5528 H   0  0  0  0  0  0  0  0  0  0  0  0
   -2.2660    1.9025   -0.8807 H   0  0  0  0  0  0  0  0  0  0  0  0
   -2.8691    0.6097   -0.1160 H   0  0  0  0  0  0  0  0  0  0  0  0
   -2.5052    4.5215    1.2374 H   0  0  0  0  0  0  0  0  0  0  0  0
   -1.4832    3.8832   -0.0009 H   0  0  0  0  0  0  0  0  0  0  0  0
  1  2  1  0
  2  3  3  0
  3  4  1  0
  4  5  1  0
  5  6  1  0
  6  7  1  0
  7  8  1  0
  7  9  1  0
  9 10  1  0
  9 11  2  0
  1 12  1  0
  1 13  1  0
  1 14  1  0
  4 15  1  0
  4 16  1  0
  5 17  1  0
  5 18  1  0
  6 19  1  0
  6 20  1  0
  7 21  1  6
  8 22  1  0
  8 23  1  0
 10 24  1  0
 10 25  1  0
M  END
