
     RDKit          3D

 32 33  0  0  0  0  0  0  0  0999 V2000
   -0.9477    4.0942   -1.9608 N   0  0  0  0  0  0  0  0  0  0  0  0
   -0.8452    2.6274   -1.9304 C   0  0  0  0  0  0  0  0  0  0  0  0
   -1.4028    2.0481   -0.6039 C   0  0  1  0  0  0  0  0  0  0  0  0
   -2.6857    2.6989   -0.2722 N   0  0  0  0  0  0  0  0  0  0  0  0
   -1.6001    0.5217   -0.6421 C   0  0  0  0  0  0  0  0  0  0  0  0
   -0.3308   -0.3009   -0.9723 C   0  0  0  0  0  0  0  0  0  0  0  0
    0.7677   -0.1905    0.1120 C   0  0  0  0  0  0  0  0  0  0  0  0
    0.4808   -1.3793    0.9748 C   0  0  0  0  0  0  0  0  0  0  0  0
    0.9506   -1.6383    2.2513 C   0  0  0  0  0  0  0  0  0  0  0  0
    0.5809   -2.8382    2.8627 C   0  0  0  0  0  0  0  0  0  0  0  0
   -0.2364   -3.7605    2.1909 C   0  0  0  0  0  0  0  0  0  0  0  0
   -0.6951   -3.4951    0.8990 C   0  0  0  0  0  0  0  0  0  0  0  0
   -0.3329   -2.2973    0.3065 C   0  0  0  0  0  0  0  0  0  0  0  0
   -0.6697   -1.8111   -1.0676 C   0  0  0  0  0  0  0  0  0  0  0  0
   -0.5101    4.4409   -2.8139 H   0  0  0  0  0  0  0  0  0  0  0  0
   -0.4060    4.4807   -1.1869 H   0  0  0  0  0  0  0  0  0  0  0  0
    0.2054    2.3447   -2.0536 H   0  0  0  0  0  0  0  0  0  0  0  0
   -1.4063    2.2273   -2.7823 H   0  0  0  0  0  0  0  0  0  0  0  0
   -0.7097    2.3109    0.2026 H   0  0  0  0  0  0  0  0  0  0  0  0
   -3.3900    2.3976   -0.9457 H   0  0  0  0  0  0  0  0  0  0  0  0
   -2.5597    3.6935   -0.4968 H   0  0  0  0  0  0  0  0  0  0  0  0
   -2.3652    0.2849   -1.3946 H   0  0  0  0  0  0  0  0  0  0  0  0
   -2.0093    0.1918    0.3225 H   0  0  0  0  0  0  0  0  0  0  0  0
    0.0545    0.0398   -1.9400 H   0  0  0  0  0  0  0  0  0  0  0  0
    1.7608   -0.3020   -0.3373 H   0  0  0  0  0  0  0  0  0  0  0  0
    0.7316    0.7415    0.6793 H   0  0  0  0  0  0  0  0  0  0  0  0
    1.5893   -0.9298    2.7686 H   0  0  0  0  0  0  0  0  0  0  0  0
    0.9319   -3.0628    3.8668 H   0  0  0  0  0  0  0  0  0  0  0  0
   -0.5111   -4.6914    2.6807 H   0  0  0  0  0  0  0  0  0  0  0  0
   -1.3198   -4.2126    0.3771 H   0  0  0  0  0  0  0  0  0  0  0  0
   -1.7165   -1.9943   -1.3270 H   0  0  0  0  0  0  0  0  0  0  0  0
   -0.0197   -2.3060   -1.7977 H   0  0  0  0  0  0  0  0  0  0  0  0
  1  2  1  0
  2  3  1  0
  3  4  1  0
  3  5  1  0
  5  6  1  0
  6  7  1  0
  7  8  1  0
  8  9  2  0
  9 10  1  0
 10 11  2  0
 11 12  1  0
 12 13  2  0
 13 14  1  0
 14  6  1  0
 13  8  1  0
  1 15  1  0
  1 16  1  0
  2 17  1  0
  2 18  1  0
  3 19  1  1
  4 20  1  0
  4 21  1  0
  5 22  1  0
  5 23  1  0
  6 24  1  0
  7 25  1  0
  7 26  1  0
  9 27  1  0
 10 28  1  0
 11 29  1  0
 12 30  1  0
 14 31  1  0
 14 32  1  0
M  END
