
     RDKit          3D

 21 20  0  0  0  0  0  0  0  0999 V2000
   -2.2531    1.8746    1.3932 C   0  0  0  0  0  0  0  0  0  0  0  0
   -1.6565    0.5093    1.7179 C   0  0  2  0  0  0  0  0  0  0  0  0
   -1.6738    0.2688    3.1701 N   0  0  0  0  0  0  0  0  0  0  0  0
   -0.2084    0.3933    1.2204 C   0  0  0  0  0  0  0  0  0  0  0  0
    0.4877    1.3905    1.0064 O   0  0  0  0  0  0  0  0  0  0  0  0
    0.3312   -1.0229    1.0825 C   0  0  0  0  0  0  0  0  0  0  0  0
    1.5056   -1.1672   -0.2974 S   0  0  0  0  0  0  0  0  0  0  0  0
    0.4607   -0.5870   -1.5905 C   0  0  0  0  0  0  0  0  0  0  0  0
    1.1912   -0.1037   -2.8087 C   0  0  0  0  0  0  0  0  0  0  0  0
   -0.7605   -0.6008   -1.4887 O   0  0  0  0  0  0  0  0  0  0  0  0
   -3.3007    1.9304    1.7082 H   0  0  0  0  0  0  0  0  0  0  0  0
   -1.7066    2.6854    1.8885 H   0  0  0  0  0  0  0  0  0  0  0  0
   -2.2145    2.0648    0.3148 H   0  0  0  0  0  0  0  0  0  0  0  0
   -2.2533   -0.2587    1.2140 H   0  0  0  0  0  0  0  0  0  0  0  0
   -1.1531    1.0199    3.6304 H   0  0  0  0  0  0  0  0  0  0  0  0
   -2.6317    0.3651    3.5097 H   0  0  0  0  0  0  0  0  0  0  0  0
   -0.4898   -1.7266    0.9173 H   0  0  0  0  0  0  0  0  0  0  0  0
    0.8318   -1.2934    2.0167 H   0  0  0  0  0  0  0  0  0  0  0  0
    1.8583    0.7224   -2.5474 H   0  0  0  0  0  0  0  0  0  0  0  0
    1.7599   -0.9224   -3.2579 H   0  0  0  0  0  0  0  0  0  0  0  0
    0.4663    0.2591   -3.5436 H   0  0  0  0  0  0  0  0  0  0  0  0
  1  2  1  0
  2  3  1  0
  2  4  1  0
  4  5  2  0
  4  6  1  0
  6  7  1  0
  7  8  1  0
  8  9  1  0
  8 10  2  0
  1 11  1  0
  1 12  1  0
  1 13  1  0
  2 14  1  6
  3 15  1  0
  3 16  1  0
  6 17  1  0
  6 18  1  0
  9 19  1  0
  9 20  1  0
  9 21  1  0
M  END
