
     RDKit          3D

 24 23  0  0  0  0  0  0  0  0999 V2000
   -1.9712    2.9938    0.7993 C   0  0  0  0  0  0  0  0  0  0  0  0
   -1.1150    2.5736   -0.3868 C   0  0  2  0  0  0  0  0  0  0  0  0
   -1.8384    2.9291   -1.6200 N   0  0  0  0  0  0  0  0  0  0  0  0
   -0.7970    1.0620   -0.4016 C   0  0  0  0  0  0  0  0  0  0  0  0
   -0.8483    0.4066   -1.4471 O   0  0  0  0  0  0  0  0  0  0  0  0
   -0.3721    0.4298    0.9130 C   0  0  0  0  0  0  0  0  0  0  0  0
    0.4385   -0.8498    0.7329 C   0  0  0  0  0  0  0  0  0  0  0  0
    2.1421   -0.5405    0.1572 S   0  0  0  0  0  0  0  0  0  0  0  0
    2.9068   -0.0709    1.6712 C   0  0  0  0  0  0  0  0  0  0  0  0
    4.4061   -0.0176    1.6106 C   0  0  0  0  0  0  0  0  0  0  0  0
    2.2614    0.2020    2.6753 O   0  0  0  0  0  0  0  0  0  0  0  0
   -2.8949    2.4063    0.8545 H   0  0  0  0  0  0  0  0  0  0  0  0
   -2.2423    4.0538    0.7368 H   0  0  0  0  0  0  0  0  0  0  0  0
   -1.4365    2.8533    1.7443 H   0  0  0  0  0  0  0  0  0  0  0  0
   -0.1536    3.0993   -0.3700 H   0  0  0  0  0  0  0  0  0  0  0  0
   -1.6265    3.8901   -1.8797 H   0  0  0  0  0  0  0  0  0  0  0  0
   -1.4819    2.3366   -2.3772 H   0  0  0  0  0  0  0  0  0  0  0  0
   -1.2924    0.1944    1.4599 H   0  0  0  0  0  0  0  0  0  0  0  0
    0.1869    1.1657    1.4987 H   0  0  0  0  0  0  0  0  0  0  0  0
    0.4786   -1.4047    1.6764 H   0  0  0  0  0  0  0  0  0  0  0  0
   -0.0403   -1.5115    0.0033 H   0  0  0  0  0  0  0  0  0  0  0  0
    4.7291    0.7340    0.8851 H   0  0  0  0  0  0  0  0  0  0  0  0
    4.7972    0.2598    2.5940 H   0  0  0  0  0  0  0  0  0  0  0  0
    4.8097   -0.9986    1.3450 H   0  0  0  0  0  0  0  0  0  0  0  0
  1  2  1  0
  2  3  1  0
  2  4  1  0
  4  5  2  0
  4  6  1  0
  6  7  1  0
  7  8  1  0
  8  9  1  0
  9 10  1  0
  9 11  2  0
  1 12  1  0
  1 13  1  0
  1 14  1  0
  2 15  1  1
  3 16  1  0
  3 17  1  0
  6 18  1  0
  6 19  1  0
  7 20  1  0
  7 21  1  0
 10 22  1  0
 10 23  1  0
 10 24  1  0
M  END
