
     RDKit          3D

 37 38  0  0  0  0  0  0  0  0999 V2000
   -0.0329    0.1487    2.2578 N   0  0  0  0  0  0  0  0  0  0  0  0
   -0.6520   -0.2729    0.9917 C   0  0  2  0  0  0  0  0  0  0  0  0
   -1.1395    0.9563    0.1995 C   0  0  0  0  0  0  0  0  0  0  0  0
   -0.0086    1.8199   -0.3809 C   0  0  0  0  0  0  0  0  0  0  0  0
    0.8353    1.0789   -1.3929 C   0  0  0  0  0  0  0  0  0  0  0  0
    0.3063    0.7315   -2.6439 C   0  0  0  0  0  0  0  0  0  0  0  0
    1.0663   -0.0031   -3.5556 C   0  0  0  0  0  0  0  0  0  0  0  0
    2.3623   -0.3955   -3.2278 C   0  0  0  0  0  0  0  0  0  0  0  0
    2.9029   -0.0458   -1.9923 C   0  0  0  0  0  0  0  0  0  0  0  0
    2.1454    0.6907   -1.0800 C   0  0  0  0  0  0  0  0  0  0  0  0
   -1.8232   -1.2508    1.2407 C   0  0  0  0  0  0  0  0  0  0  0  0
   -1.2786   -2.8625    1.9456 S   0  0  0  0  0  0  0  0  0  0  0  0
   -0.2014   -3.4395    0.6434 C   0  0  0  0  0  0  0  0  0  0  0  0
   -0.6462   -3.5675   -0.6772 C   0  0  0  0  0  0  0  0  0  0  0  0
    0.2391   -3.9601   -1.6850 C   0  0  0  0  0  0  0  0  0  0  0  0
    1.5673   -4.2382   -1.3703 C   0  0  0  0  0  0  0  0  0  0  0  0
    2.6614   -4.7026   -2.6137 Cl  0  0  0  0  0  0  0  0  0  0  0  0
    2.0139   -4.1429   -0.0542 C   0  0  0  0  0  0  0  0  0  0  0  0
    1.1282   -3.7481    0.9523 C   0  0  0  0  0  0  0  0  0  0  0  0
    0.8702    0.5796    2.0664 H   0  0  0  0  0  0  0  0  0  0  0  0
    0.1691   -0.6872    2.8108 H   0  0  0  0  0  0  0  0  0  0  0  0
    0.1089   -0.7879    0.3992 H   0  0  0  0  0  0  0  0  0  0  0  0
   -1.7876    0.6232   -0.6215 H   0  0  0  0  0  0  0  0  0  0  0  0
   -1.7678    1.5848    0.8444 H   0  0  0  0  0  0  0  0  0  0  0  0
    0.6217    2.2165    0.4239 H   0  0  0  0  0  0  0  0  0  0  0  0
   -0.4449    2.6975   -0.8751 H   0  0  0  0  0  0  0  0  0  0  0  0
   -0.7051    1.0267   -2.9136 H   0  0  0  0  0  0  0  0  0  0  0  0
    0.6465   -0.2711   -4.5215 H   0  0  0  0  0  0  0  0  0  0  0  0
    2.9521   -0.9724   -3.9354 H   0  0  0  0  0  0  0  0  0  0  0  0
    3.9147   -0.3503   -1.7379 H   0  0  0  0  0  0  0  0  0  0  0  0
    2.5815    0.9481   -0.1179 H   0  0  0  0  0  0  0  0  0  0  0  0
   -2.3694   -1.4467    0.3122 H   0  0  0  0  0  0  0  0  0  0  0  0
   -2.5411   -0.8110    1.9426 H   0  0  0  0  0  0  0  0  0  0  0  0
   -1.6805   -3.3595   -0.9381 H   0  0  0  0  0  0  0  0  0  0  0  0
   -0.1126   -4.0417   -2.7098 H   0  0  0  0  0  0  0  0  0  0  0  0
    3.0475   -4.3671    0.1948 H   0  0  0  0  0  0  0  0  0  0  0  0
    1.4896   -3.6677    1.9750 H   0  0  0  0  0  0  0  0  0  0  0  0
  1  2  1  0
  2  3  1  0
  3  4  1  0
  4  5  1  0
  5  6  2  0
  6  7  1  0
  7  8  2  0
  8  9  1  0
  9 10  2  0
  2 11  1  0
 11 12  1  0
 12 13  1  0
 13 14  2  0
 14 15  1  0
 15 16  2  0
 16 17  1  0
 16 18  1  0
 18 19  2  0
 10  5  1  0
 19 13  1  0
  1 20  1  0
  1 21  1  0
  2 22  1  6
  3 23  1  0
  3 24  1  0
  4 25  1  0
  4 26  1  0
  6 27  1  0
  7 28  1  0
  8 29  1  0
  9 30  1  0
 10 31  1  0
 11 32  1  0
 11 33  1  0
 14 34  1  0
 15 35  1  0
 18 36  1  0
 19 37  1  0
M  END
