
     RDKit          3D

 22 21  0  0  0  0  0  0  0  0999 V2000
   -1.0066   -0.4891   -1.2799 C   0  0  0  0  0  0  0  0  0  0  0  0
   -0.3525   -0.1490    0.0653 C   0  0  0  0  0  0  0  0  0  0  0  0
    0.7333   -1.1762    0.3725 C   0  0  0  0  0  0  0  0  0  0  0  0
   -1.4482   -0.0471    1.1504 C   0  0  0  0  0  0  0  0  0  0  0  0
   -1.0382    0.3539    2.5841 C   0  0  2  0  0  0  0  0  0  0  0  0
   -0.1050    1.4873    2.5704 N   0  0  0  0  0  0  0  0  0  0  0  0
   -0.5196   -0.8311    3.4208 C   0  0  0  0  0  0  0  0  0  0  0  0
   -0.3771   -0.3817    5.1487 Cl  0  0  0  0  0  0  0  0  0  0  0  0
   -1.7613    0.2583   -1.5471 H   0  0  0  0  0  0  0  0  0  0  0  0
   -1.4948   -1.4692   -1.2477 H   0  0  0  0  0  0  0  0  0  0  0  0
   -0.2614   -0.5079   -2.0824 H   0  0  0  0  0  0  0  0  0  0  0  0
    0.1278    0.8305   -0.0500 H   0  0  0  0  0  0  0  0  0  0  0  0
    1.3828   -0.8312    1.1812 H   0  0  0  0  0  0  0  0  0  0  0  0
    1.3784   -1.3364   -0.4986 H   0  0  0  0  0  0  0  0  0  0  0  0
    0.3022   -2.1426    0.6535 H   0  0  0  0  0  0  0  0  0  0  0  0
   -2.0048   -0.9930    1.1932 H   0  0  0  0  0  0  0  0  0  0  0  0
   -2.1732    0.7039    0.8040 H   0  0  0  0  0  0  0  0  0  0  0  0
   -1.9576    0.7034    3.0743 H   0  0  0  0  0  0  0  0  0  0  0  0
   -0.5596    2.3013    2.1581 H   0  0  0  0  0  0  0  0  0  0  0  0
    0.1191    1.7425    3.5347 H   0  0  0  0  0  0  0  0  0  0  0  0
   -1.2111   -1.6775    3.3693 H   0  0  0  0  0  0  0  0  0  0  0  0
    0.4682   -1.1711    3.1070 H   0  0  0  0  0  0  0  0  0  0  0  0
  1  2  1  0
  2  3  1  0
  2  4  1  0
  4  5  1  0
  5  6  1  0
  5  7  1  0
  7  8  1  0
  1  9  1  0
  1 10  1  0
  1 11  1  0
  2 12  1  0
  3 13  1  0
  3 14  1  0
  3 15  1  0
  4 16  1  0
  4 17  1  0
  5 18  1  1
  6 19  1  0
  6 20  1  0
  7 21  1  0
  7 22  1  0
M  END
