
     RDKit          3D

 42 44  0  0  0  0  0  0  0  0999 V2000
    2.4783    0.7145    1.6617 C   0  0  0  0  0  0  0  0  0  0  0  0
    2.2703    0.4285    0.1735 C   0  0  1  0  0  0  0  0  0  0  0  0
    2.3769   -1.0011   -0.1216 N   0  0  0  0  0  0  0  0  0  0  0  0
    0.9969    1.0530   -0.3912 C   0  0  0  0  0  0  0  0  0  0  0  0
    1.1840    2.1381   -1.2827 C   0  0  0  0  0  0  0  0  0  0  0  0
    0.1101    2.8034   -1.8705 C   0  0  0  0  0  0  0  0  0  0  0  0
   -1.1831    2.4017   -1.5820 C   0  0  0  0  0  0  0  0  0  0  0  0
   -1.3973    1.3369   -0.7066 C   0  0  0  0  0  0  0  0  0  0  0  0
   -0.3296    0.6424   -0.0921 C   0  0  0  0  0  0  0  0  0  0  0  0
   -0.7110   -0.7527    1.0444 P   0  0  0  0  0  0  0  0  0  0  0  0
   -1.7631   -1.8020   -0.0163 C   0  0  0  0  0  0  0  0  0  0  0  0
   -1.1301   -2.8141   -0.7588 C   0  0  0  0  0  0  0  0  0  0  0  0
   -1.8606   -3.6636   -1.5944 C   0  0  0  0  0  0  0  0  0  0  0  0
   -3.2398   -3.5150   -1.7036 C   0  0  0  0  0  0  0  0  0  0  0  0
   -3.8863   -2.5172   -0.9794 C   0  0  0  0  0  0  0  0  0  0  0  0
   -3.1536   -1.6681   -0.1439 C   0  0  0  0  0  0  0  0  0  0  0  0
   -1.8206   -0.0582    2.3104 C   0  0  0  0  0  0  0  0  0  0  0  0
   -1.8302    1.3057    2.6417 C   0  0  0  0  0  0  0  0  0  0  0  0
   -2.6674    1.8016    3.6468 C   0  0  0  0  0  0  0  0  0  0  0  0
   -3.4953    0.9377    4.3571 C   0  0  0  0  0  0  0  0  0  0  0  0
   -3.4767   -0.4237    4.0720 C   0  0  0  0  0  0  0  0  0  0  0  0
   -2.6390   -0.9164    3.0669 C   0  0  0  0  0  0  0  0  0  0  0  0
    3.4701    0.3760    1.9833 H   0  0  0  0  0  0  0  0  0  0  0  0
    2.4154    1.7901    1.8623 H   0  0  0  0  0  0  0  0  0  0  0  0
    1.7448    0.2175    2.3015 H   0  0  0  0  0  0  0  0  0  0  0  0
    3.1256    0.8897   -0.3384 H   0  0  0  0  0  0  0  0  0  0  0  0
    2.3001   -1.1323   -1.1287 H   0  0  0  0  0  0  0  0  0  0  0  0
    3.2969   -1.3370    0.1530 H   0  0  0  0  0  0  0  0  0  0  0  0
    2.1889    2.4774   -1.5292 H   0  0  0  0  0  0  0  0  0  0  0  0
    0.2867    3.6310   -2.5519 H   0  0  0  0  0  0  0  0  0  0  0  0
   -2.0298    2.9106   -2.0344 H   0  0  0  0  0  0  0  0  0  0  0  0
   -2.4281    1.0578   -0.5013 H   0  0  0  0  0  0  0  0  0  0  0  0
   -0.0513   -2.9487   -0.6910 H   0  0  0  0  0  0  0  0  0  0  0  0
   -1.3487   -4.4387   -2.1582 H   0  0  0  0  0  0  0  0  0  0  0  0
   -3.8095   -4.1737   -2.3532 H   0  0  0  0  0  0  0  0  0  0  0  0
   -4.9629   -2.3949   -1.0639 H   0  0  0  0  0  0  0  0  0  0  0  0
   -3.6919   -0.8953    0.3989 H   0  0  0  0  0  0  0  0  0  0  0  0
   -1.1775    2.0089    2.1295 H   0  0  0  0  0  0  0  0  0  0  0  0
   -2.6621    2.8636    3.8783 H   0  0  0  0  0  0  0  0  0  0  0  0
   -4.1423    1.3227    5.1404 H   0  0  0  0  0  0  0  0  0  0  0  0
   -4.1061   -1.1077    4.6351 H   0  0  0  0  0  0  0  0  0  0  0  0
   -2.6315   -1.9893    2.8804 H   0  0  0  0  0  0  0  0  0  0  0  0
  1  2  1  0
  2  3  1  0
  2  4  1  0
  4  5  2  0
  5  6  1  0
  6  7  2  0
  7  8  1  0
  8  9  2  0
  9 10  1  0
 10 11  1  0
 11 12  2  0
 12 13  1  0
 13 14  2  0
 14 15  1  0
 15 16  2  0
 10 17  1  0
 17 18  2  0
 18 19  1  0
 19 20  2  0
 20 21  1  0
 21 22  2  0
  9  4  1  0
 16 11  1  0
 22 17  1  0
  1 23  1  0
  1 24  1  0
  1 25  1  0
  2 26  1  6
  3 27  1  0
  3 28  1  0
  5 29  1  0
  6 30  1  0
  7 31  1  0
  8 32  1  0
 12 33  1  0
 13 34  1  0
 14 35  1  0
 15 36  1  0
 16 37  1  0
 18 38  1  0
 19 39  1  0
 20 40  1  0
 21 41  1  0
 22 42  1  0
M  END
