
     RDKit          3D

 26 27  0  0  0  0  0  0  0  0999 V2000
    1.7622    2.2463    0.4751 C   0  0  0  0  0  0  0  0  0  0  0  0
    0.6731    2.2074   -0.5980 C   0  0  0  0  0  0  0  0  0  0  0  0
   -0.4789    3.0222   -0.2075 N   0  0  0  0  0  0  0  0  0  0  0  0
    0.2850    0.7828   -0.9808 C   0  0  0  0  0  0  0  0  0  0  0  0
    0.7154    0.3341   -2.2481 C   0  0  0  0  0  0  0  0  0  0  0  0
    0.4418   -0.9548   -2.6912 C   0  0  0  0  0  0  0  0  0  0  0  0
   -0.2663   -1.8281   -1.8750 C   0  0  0  0  0  0  0  0  0  0  0  0
   -0.7135   -1.4275   -0.6091 C   0  0  0  0  0  0  0  0  0  0  0  0
   -1.4261   -2.3382    0.1898 C   0  0  0  0  0  0  0  0  0  0  0  0
   -1.8910   -1.9785    1.4521 C   0  0  0  0  0  0  0  0  0  0  0  0
   -1.6506   -0.6996    1.9299 C   0  0  0  0  0  0  0  0  0  0  0  0
   -0.9425    0.2157    1.1458 C   0  0  0  0  0  0  0  0  0  0  0  0
   -0.4482   -0.1124   -0.1399 C   0  0  0  0  0  0  0  0  0  0  0  0
    2.6421    1.6772    0.1539 H   0  0  0  0  0  0  0  0  0  0  0  0
    2.0858    3.2766    0.6625 H   0  0  0  0  0  0  0  0  0  0  0  0
    1.4317    1.8259    1.4298 H   0  0  0  0  0  0  0  0  0  0  0  0
    1.0929    2.6980   -1.4861 H   0  0  0  0  0  0  0  0  0  0  0  0
   -0.1955    3.9970   -0.1366 H   0  0  0  0  0  0  0  0  0  0  0  0
   -1.1773    2.9739   -0.9486 H   0  0  0  0  0  0  0  0  0  0  0  0
    1.2789    0.9951   -2.9040 H   0  0  0  0  0  0  0  0  0  0  0  0
    0.7831   -1.2801   -3.6701 H   0  0  0  0  0  0  0  0  0  0  0  0
   -0.4685   -2.8335   -2.2380 H   0  0  0  0  0  0  0  0  0  0  0  0
   -1.6271   -3.3450   -0.1703 H   0  0  0  0  0  0  0  0  0  0  0  0
   -2.4414   -2.6942    2.0561 H   0  0  0  0  0  0  0  0  0  0  0  0
   -2.0135   -0.4036    2.9103 H   0  0  0  0  0  0  0  0  0  0  0  0
   -0.7904    1.2097    1.5585 H   0  0  0  0  0  0  0  0  0  0  0  0
  1  2  1  0
  2  3  1  0
  2  4  1  0
  4  5  2  0
  5  6  1  0
  6  7  2  0
  7  8  1  0
  8  9  2  0
  9 10  1  0
 10 11  2  0
 11 12  1  0
 12 13  2  0
 13  4  1  0
 13  8  1  0
  1 14  1  0
  1 15  1  0
  1 16  1  0
  2 17  1  0
  3 18  1  0
  3 19  1  0
  5 20  1  0
  6 21  1  0
  7 22  1  0
  9 23  1  0
 10 24  1  0
 11 25  1  0
 12 26  1  0
M  END
