
     RDKit          3D

 26 27  0  0  0  0  0  0  0  0999 V2000
   -3.1110    1.3810    1.3485 N   0  0  0  0  0  0  0  0  0  0  0  0
   -2.2154    1.8732    0.3001 C   0  0  0  0  0  0  0  0  0  0  0  0
   -2.9814    1.9971   -1.0184 C   0  0  0  0  0  0  0  0  0  0  0  0
   -0.9820    0.9952    0.1999 C   0  0  0  0  0  0  0  0  0  0  0  0
    0.2360    1.4471    0.7370 C   0  0  0  0  0  0  0  0  0  0  0  0
    1.4002    0.6603    0.6859 C   0  0  0  0  0  0  0  0  0  0  0  0
    2.6179    1.1163    1.2172 C   0  0  0  0  0  0  0  0  0  0  0  0
    3.7648    0.3228    1.1583 C   0  0  0  0  0  0  0  0  0  0  0  0
    3.7095   -0.9363    0.5682 C   0  0  0  0  0  0  0  0  0  0  0  0
    2.5070   -1.4045    0.0363 C   0  0  0  0  0  0  0  0  0  0  0  0
    1.3447   -0.6177    0.0881 C   0  0  0  0  0  0  0  0  0  0  0  0
    0.1279   -1.0740   -0.4383 C   0  0  0  0  0  0  0  0  0  0  0  0
   -1.0211   -0.2801   -0.3795 C   0  0  0  0  0  0  0  0  0  0  0  0
   -3.4088    0.4352    1.1150 H   0  0  0  0  0  0  0  0  0  0  0  0
   -2.5775    1.2931    2.2132 H   0  0  0  0  0  0  0  0  0  0  0  0
   -1.9052    2.8872    0.5819 H   0  0  0  0  0  0  0  0  0  0  0  0
   -3.8022    2.7171   -0.9218 H   0  0  0  0  0  0  0  0  0  0  0  0
   -3.4172    1.0451   -1.3410 H   0  0  0  0  0  0  0  0  0  0  0  0
   -2.3218    2.3495   -1.8194 H   0  0  0  0  0  0  0  0  0  0  0  0
    0.2793    2.4302    1.2034 H   0  0  0  0  0  0  0  0  0  0  0  0
    2.6816    2.0976    1.6820 H   0  0  0  0  0  0  0  0  0  0  0  0
    4.7002    0.6891    1.5731 H   0  0  0  0  0  0  0  0  0  0  0  0
    4.6015   -1.5553    0.5213 H   0  0  0  0  0  0  0  0  0  0  0  0
    2.4830   -2.3913   -0.4204 H   0  0  0  0  0  0  0  0  0  0  0  0
    0.0634   -2.0576   -0.8985 H   0  0  0  0  0  0  0  0  0  0  0  0
   -1.9475   -0.6744   -0.7898 H   0  0  0  0  0  0  0  0  0  0  0  0
  1  2  1  0
  2  3  1  0
  2  4  1  0
  4  5  2  0
  5  6  1  0
  6  7  2  0
  7  8  1  0
  8  9  2  0
  9 10  1  0
 10 11  2  0
 11 12  1  0
 12 13  2  0
 13  4  1  0
 11  6  1  0
  1 14  1  0
  1 15  1  0
  2 16  1  0
  3 17  1  0
  3 18  1  0
  3 19  1  0
  5 20  1  0
  7 21  1  0
  8 22  1  0
  9 23  1  0
 10 24  1  0
 12 25  1  0
 13 26  1  0
M  END
