
     RDKit          3D

 32 32  0  0  0  0  0  0  0  0999 V2000
    3.9087   -0.0602   -2.1003 N   0  0  0  0  0  0  0  0  0  0  0  0
    3.2263   -1.1547   -1.4065 C   0  0  0  0  0  0  0  0  0  0  0  0
    3.4955   -2.4743   -2.1322 C   0  0  0  0  0  0  0  0  0  0  0  0
    1.7500   -0.8463   -1.2489 C   0  0  0  0  0  0  0  0  0  0  0  0
    1.2523   -0.4465   -0.0037 C   0  0  0  0  0  0  0  0  0  0  0  0
   -0.1026   -0.1379    0.1630 C   0  0  0  0  0  0  0  0  0  0  0  0
   -1.0127   -0.2089   -0.9075 C   0  0  0  0  0  0  0  0  0  0  0  0
   -2.4954    0.1368   -0.6864 C   0  0  0  0  0  0  0  0  0  0  0  0
   -3.3639    0.0058   -1.9581 C   0  0  0  0  0  0  0  0  0  0  0  0
   -3.0966   -0.8091    0.3756 C   0  0  0  0  0  0  0  0  0  0  0  0
   -2.6207    1.5956   -0.1964 C   0  0  0  0  0  0  0  0  0  0  0  0
   -0.5014   -0.5994   -2.1543 C   0  0  0  0  0  0  0  0  0  0  0  0
    0.8550   -0.9090   -2.3236 C   0  0  0  0  0  0  0  0  0  0  0  0
    3.5011    0.0492   -3.0274 H   0  0  0  0  0  0  0  0  0  0  0  0
    3.7018    0.8089   -1.6084 H   0  0  0  0  0  0  0  0  0  0  0  0
    3.6768   -1.2435   -0.4099 H   0  0  0  0  0  0  0  0  0  0  0  0
    4.5677   -2.7018   -2.1350 H   0  0  0  0  0  0  0  0  0  0  0  0
    3.1621   -2.4542   -3.1756 H   0  0  0  0  0  0  0  0  0  0  0  0
    2.9805   -3.3037   -1.6344 H   0  0  0  0  0  0  0  0  0  0  0  0
    1.9162   -0.3711    0.8551 H   0  0  0  0  0  0  0  0  0  0  0  0
   -0.4375    0.1632    1.1535 H   0  0  0  0  0  0  0  0  0  0  0  0
   -3.0212    0.6795   -2.7521 H   0  0  0  0  0  0  0  0  0  0  0  0
   -4.4102    0.2601   -1.7499 H   0  0  0  0  0  0  0  0  0  0  0  0
   -3.3534   -1.0179   -2.3502 H   0  0  0  0  0  0  0  0  0  0  0  0
   -2.6092   -0.7010    1.3508 H   0  0  0  0  0  0  0  0  0  0  0  0
   -4.1634   -0.6067    0.5268 H   0  0  0  0  0  0  0  0  0  0  0  0
   -2.9958   -1.8579    0.0719 H   0  0  0  0  0  0  0  0  0  0  0  0
   -2.1226    1.7537    0.7665 H   0  0  0  0  0  0  0  0  0  0  0  0
   -3.6714    1.8792   -0.0637 H   0  0  0  0  0  0  0  0  0  0  0  0
   -2.1752    2.2930   -0.9157 H   0  0  0  0  0  0  0  0  0  0  0  0
   -1.1401   -0.6729   -3.0302 H   0  0  0  0  0  0  0  0  0  0  0  0
    1.2005   -1.1973   -3.3136 H   0  0  0  0  0  0  0  0  0  0  0  0
  1  2  1  0
  2  3  1  0
  2  4  1  0
  4  5  2  0
  5  6  1  0
  6  7  2  0
  7  8  1  0
  8  9  1  0
  8 10  1  0
  8 11  1  0
  7 12  1  0
 12 13  2  0
 13  4  1  0
  1 14  1  0
  1 15  1  0
  2 16  1  0
  3 17  1  0
  3 18  1  0
  3 19  1  0
  5 20  1  0
  6 21  1  0
  9 22  1  0
  9 23  1  0
  9 24  1  0
 10 25  1  0
 10 26  1  0
 10 27  1  0
 11 28  1  0
 11 29  1  0
 11 30  1  0
 12 31  1  0
 13 32  1  0
M  END
