
     RDKit          3D

 23 23  0  0  0  0  0  0  0  0999 V2000
    0.6621    0.0186   -2.0462 N   0  0  0  0  0  0  0  0  0  0  0  0
   -0.7575    0.1962   -1.7328 C   0  0  0  0  0  0  0  0  0  0  0  0
   -1.5880   -0.8432   -2.4882 C   0  0  0  0  0  0  0  0  0  0  0  0
   -0.9786    0.1675   -0.2318 C   0  0  0  0  0  0  0  0  0  0  0  0
   -0.9186   -1.0242    0.5065 C   0  0  0  0  0  0  0  0  0  0  0  0
   -1.0993   -1.0146    1.8902 C   0  0  0  0  0  0  0  0  0  0  0  0
   -1.3393    0.1854    2.5575 C   0  0  0  0  0  0  0  0  0  0  0  0
   -1.4077    1.3869    1.8461 C   0  0  0  0  0  0  0  0  0  0  0  0
   -1.6267    2.6848    2.5658 C   0  0  0  0  0  0  0  0  0  0  0  0
   -1.2105    1.3704    0.4579 C   0  0  0  0  0  0  0  0  0  0  0  0
    0.9683   -0.8861   -1.6922 H   0  0  0  0  0  0  0  0  0  0  0  0
    1.1949    0.7107   -1.5197 H   0  0  0  0  0  0  0  0  0  0  0  0
   -1.0580    1.1797   -2.1152 H   0  0  0  0  0  0  0  0  0  0  0  0
   -1.2964   -1.8706   -2.2438 H   0  0  0  0  0  0  0  0  0  0  0  0
   -1.4710   -0.7181   -3.5709 H   0  0  0  0  0  0  0  0  0  0  0  0
   -2.6529   -0.7349   -2.2537 H   0  0  0  0  0  0  0  0  0  0  0  0
   -0.7229   -1.9726    0.0125 H   0  0  0  0  0  0  0  0  0  0  0  0
   -1.0479   -1.9449    2.4502 H   0  0  0  0  0  0  0  0  0  0  0  0
   -1.4706    0.1771    3.6370 H   0  0  0  0  0  0  0  0  0  0  0  0
   -0.6645    3.1218    2.8501 H   0  0  0  0  0  0  0  0  0  0  0  0
   -2.1660    3.3964    1.9318 H   0  0  0  0  0  0  0  0  0  0  0  0
   -2.2278    2.5349    3.4688 H   0  0  0  0  0  0  0  0  0  0  0  0
   -1.2396    2.3088   -0.0938 H   0  0  0  0  0  0  0  0  0  0  0  0
  1  2  1  0
  2  3  1  0
  2  4  1  0
  4  5  2  0
  5  6  1  0
  6  7  2  0
  7  8  1  0
  8  9  1  0
  8 10  2  0
 10  4  1  0
  1 11  1  0
  1 12  1  0
  2 13  1  0
  3 14  1  0
  3 15  1  0
  3 16  1  0
  5 17  1  0
  6 18  1  0
  7 19  1  0
  9 20  1  0
  9 21  1  0
  9 22  1  0
 10 23  1  0
M  END
