
     RDKit          3D

 23 23  0  0  0  0  0  0  0  0999 V2000
   -0.2625    1.3008    1.2662 N   0  0  0  0  0  0  0  0  0  0  0  0
    0.4574    1.4832    0.0014 C   0  0  0  0  0  0  0  0  0  0  0  0
    1.9327    1.8560    0.2465 C   0  0  0  0  0  0  0  0  0  0  0  0
    2.7462    0.8292    1.0270 C   0  0  0  0  0  0  0  0  0  0  0  0
    0.3010    0.2943   -0.9309 C   0  0  0  0  0  0  0  0  0  0  0  0
    0.2756    0.5010   -2.3202 C   0  0  0  0  0  0  0  0  0  0  0  0
    0.1466   -0.5747   -3.2017 C   0  0  0  0  0  0  0  0  0  0  0  0
    0.0460   -1.8733   -2.7081 C   0  0  0  0  0  0  0  0  0  0  0  0
    0.0769   -2.0976   -1.3339 C   0  0  0  0  0  0  0  0  0  0  0  0
    0.2055   -1.0224   -0.4523 C   0  0  0  0  0  0  0  0  0  0  0  0
   -1.2472    1.1421    1.0551 H   0  0  0  0  0  0  0  0  0  0  0  0
   -0.2184    2.1641    1.8036 H   0  0  0  0  0  0  0  0  0  0  0  0
   -0.0158    2.3438   -0.4908 H   0  0  0  0  0  0  0  0  0  0  0  0
    1.9708    2.8071    0.7936 H   0  0  0  0  0  0  0  0  0  0  0  0
    2.4307    2.0359   -0.7147 H   0  0  0  0  0  0  0  0  0  0  0  0
    2.8340   -0.1137    0.4799 H   0  0  0  0  0  0  0  0  0  0  0  0
    2.3050    0.6244    2.0070 H   0  0  0  0  0  0  0  0  0  0  0  0
    3.7603    1.2080    1.1922 H   0  0  0  0  0  0  0  0  0  0  0  0
    0.3579    1.5068   -2.7263 H   0  0  0  0  0  0  0  0  0  0  0  0
    0.1270   -0.3986   -4.2739 H   0  0  0  0  0  0  0  0  0  0  0  0
   -0.0529   -2.7105   -3.3935 H   0  0  0  0  0  0  0  0  0  0  0  0
    0.0039   -3.1097   -0.9450 H   0  0  0  0  0  0  0  0  0  0  0  0
    0.2371   -1.2164    0.6184 H   0  0  0  0  0  0  0  0  0  0  0  0
  1  2  1  0
  2  3  1  0
  3  4  1  0
  2  5  1  0
  5  6  2  0
  6  7  1  0
  7  8  2  0
  8  9  1  0
  9 10  2  0
 10  5  1  0
  1 11  1  0
  1 12  1  0
  2 13  1  0
  3 14  1  0
  3 15  1  0
  4 16  1  0
  4 17  1  0
  4 18  1  0
  6 19  1  0
  7 20  1  0
  8 21  1  0
  9 22  1  0
 10 23  1  0
M  END
