
     RDKit          3D

 19 18  0  0  0  0  0  0  0  0999 V2000
    0.6795    0.1948   -1.4117 N   0  0  0  0  0  0  0  0  0  0  0  0
    1.5405   -0.0771   -0.2550 C   0  0  0  0  0  0  0  0  0  0  0  0
    2.3415    1.1887    0.0605 C   0  0  0  0  0  0  0  0  0  0  0  0
    0.6901   -0.5711    0.9449 C   0  0  0  0  0  0  0  0  0  0  0  0
   -0.0911   -1.8464    0.5970 C   0  0  0  0  0  0  0  0  0  0  0  0
    1.5473   -0.8424    2.1867 C   0  0  0  0  0  0  0  0  0  0  0  0
    0.0277    0.9456   -1.1860 H   0  0  0  0  0  0  0  0  0  0  0  0
    1.2442    0.5344   -2.1894 H   0  0  0  0  0  0  0  0  0  0  0  0
    2.2447   -0.8674   -0.5426 H   0  0  0  0  0  0  0  0  0  0  0  0
    3.1083    0.9950    0.8169 H   0  0  0  0  0  0  0  0  0  0  0  0
    2.8644    1.5563   -0.8301 H   0  0  0  0  0  0  0  0  0  0  0  0
    1.6934    1.9925    0.4269 H   0  0  0  0  0  0  0  0  0  0  0  0
   -0.0403    0.2055    1.2098 H   0  0  0  0  0  0  0  0  0  0  0  0
   -0.6692   -2.1953    1.4597 H   0  0  0  0  0  0  0  0  0  0  0  0
   -0.8013   -1.6734   -0.2177 H   0  0  0  0  0  0  0  0  0  0  0  0
    0.5849   -2.6538    0.2951 H   0  0  0  0  0  0  0  0  0  0  0  0
    2.3516   -1.5521    1.9657 H   0  0  0  0  0  0  0  0  0  0  0  0
    0.9395   -1.2621    2.9959 H   0  0  0  0  0  0  0  0  0  0  0  0
    1.9965    0.0782    2.5711 H   0  0  0  0  0  0  0  0  0  0  0  0
  1  2  1  0
  2  3  1  0
  2  4  1  0
  4  5  1  0
  4  6  1  0
  1  7  1  0
  1  8  1  0
  2  9  1  0
  3 10  1  0
  3 11  1  0
  3 12  1  0
  4 13  1  0
  5 14  1  0
  5 15  1  0
  5 16  1  0
  6 17  1  0
  6 18  1  0
  6 19  1  0
M  END
