
     RDKit          3D

 23 23  0  0  0  0  0  0  0  0999 V2000
    0.1748    0.3975   -1.6993 C   0  0  2  0  0  0  0  0  0  0  0  0
   -0.3819    0.9905   -2.9952 C   0  0  0  0  0  0  0  0  0  0  0  0
    0.9604   -0.8002   -2.0283 N   0  0  0  0  0  0  0  0  0  0  0  0
   -0.9741    0.0763   -0.7181 C   0  0  0  0  0  0  0  0  0  0  0  0
   -0.5245   -0.0607    0.7190 C   0  0  0  0  0  0  0  0  0  0  0  0
    0.0526   -1.2523    1.1765 C   0  0  0  0  0  0  0  0  0  0  0  0
    0.4701   -1.3753    2.5028 C   0  0  0  0  0  0  0  0  0  0  0  0
    0.3166   -0.3077    3.3849 C   0  0  0  0  0  0  0  0  0  0  0  0
   -0.2513    0.8846    2.9404 C   0  0  0  0  0  0  0  0  0  0  0  0
   -0.6683    1.0092    1.6137 C   0  0  0  0  0  0  0  0  0  0  0  0
    0.8489    1.1345   -1.2461 H   0  0  0  0  0  0  0  0  0  0  0  0
   -0.9276    1.9184   -2.7921 H   0  0  0  0  0  0  0  0  0  0  0  0
   -1.0695    0.2969   -3.4921 H   0  0  0  0  0  0  0  0  0  0  0  0
    0.4244    1.2308   -3.6973 H   0  0  0  0  0  0  0  0  0  0  0  0
    1.7147   -0.5478   -2.6656 H   0  0  0  0  0  0  0  0  0  0  0  0
    0.3776   -1.4706   -2.5274 H   0  0  0  0  0  0  0  0  0  0  0  0
   -1.7302    0.8717   -0.7660 H   0  0  0  0  0  0  0  0  0  0  0  0
   -1.5021   -0.8378   -1.0220 H   0  0  0  0  0  0  0  0  0  0  0  0
    0.1897   -2.0888    0.4947 H   0  0  0  0  0  0  0  0  0  0  0  0
    0.9199   -2.3037    2.8441 H   0  0  0  0  0  0  0  0  0  0  0  0
    0.6435   -0.4038    4.4165 H   0  0  0  0  0  0  0  0  0  0  0  0
   -0.3680    1.7191    3.6265 H   0  0  0  0  0  0  0  0  0  0  0  0
   -1.1067    1.9477    1.2834 H   0  0  0  0  0  0  0  0  0  0  0  0
  1  2  1  0
  1  3  1  0
  1  4  1  0
  4  5  1  0
  5  6  2  0
  6  7  1  0
  7  8  2  0
  8  9  1  0
  9 10  2  0
 10  5  1  0
  1 11  1  1
  2 12  1  0
  2 13  1  0
  2 14  1  0
  3 15  1  0
  3 16  1  0
  4 17  1  0
  4 18  1  0
  6 19  1  0
  7 20  1  0
  8 21  1  0
  9 22  1  0
 10 23  1  0
M  END
