
     RDKit          3D

 22 22  0  0  0  0  0  0  0  0999 V2000
   -1.2889   -1.0510   -1.6467 C   0  0  2  0  0  0  0  0  0  0  0  0
    0.0232   -1.4153   -2.3302 C   0  0  0  0  0  0  0  0  0  0  0  0
   -2.1020   -0.2497   -2.5885 N   0  0  0  0  0  0  0  0  0  0  0  0
   -1.0337   -0.2270   -0.3715 C   0  0  0  0  0  0  0  0  0  0  0  0
   -1.2341    0.9902   -0.3447 O   0  0  0  0  0  0  0  0  0  0  0  0
   -0.5274   -0.9058    0.8630 C   0  0  0  0  0  0  0  0  0  0  0  0
   -0.4632   -2.2986    0.9940 C   0  0  0  0  0  0  0  0  0  0  0  0
    0.0179   -2.8727    2.1750 C   0  0  0  0  0  0  0  0  0  0  0  0
    0.4336   -2.0635    3.2309 C   0  0  0  0  0  0  0  0  0  0  0  0
    0.3680   -0.6775    3.1120 C   0  0  0  0  0  0  0  0  0  0  0  0
   -0.1117   -0.1009    1.9343 C   0  0  0  0  0  0  0  0  0  0  0  0
   -1.8707   -1.9443   -1.4041 H   0  0  0  0  0  0  0  0  0  0  0  0
   -0.1571   -1.9606   -3.2632 H   0  0  0  0  0  0  0  0  0  0  0  0
    0.6135   -0.5220   -2.5661 H   0  0  0  0  0  0  0  0  0  0  0  0
    0.6441   -2.0515   -1.6917 H   0  0  0  0  0  0  0  0  0  0  0  0
   -2.9502    0.0443   -2.0987 H   0  0  0  0  0  0  0  0  0  0  0  0
   -1.6079    0.6356   -2.7391 H   0  0  0  0  0  0  0  0  0  0  0  0
   -0.7828   -2.9674    0.2012 H   0  0  0  0  0  0  0  0  0  0  0  0
    0.0663   -3.9550    2.2726 H   0  0  0  0  0  0  0  0  0  0  0  0
    0.8062   -2.5132    4.1482 H   0  0  0  0  0  0  0  0  0  0  0  0
    0.6884   -0.0432    3.9350 H   0  0  0  0  0  0  0  0  0  0  0  0
   -0.1586    0.9843    1.8573 H   0  0  0  0  0  0  0  0  0  0  0  0
  1  2  1  0
  1  3  1  0
  1  4  1  0
  4  5  2  0
  4  6  1  0
  6  7  2  0
  7  8  1  0
  8  9  2  0
  9 10  1  0
 10 11  2  0
 11  6  1  0
  1 12  1  1
  2 13  1  0
  2 14  1  0
  2 15  1  0
  3 16  1  0
  3 17  1  0
  7 18  1  0
  8 19  1  0
  9 20  1  0
 10 21  1  0
 11 22  1  0
M  END
