
     RDKit          3D

 14 13  0  0  0  0  0  0  0  0999 V2000
    0.5062   -2.0721   -0.1290 N   0  0  0  0  0  0  0  0  0  0  0  0
   -0.0982   -1.2845   -1.2367 C   0  0  1  0  0  0  0  0  0  0  0  0
   -1.5054   -1.8015   -1.5904 C   0  0  0  0  0  0  0  0  0  0  0  0
   -2.6353   -1.9156   -0.1595 S   0  0  0  0  0  0  0  0  0  0  0  0
   -0.1180    0.2301   -0.9565 C   0  0  0  0  0  0  0  0  0  0  0  0
    1.3111    0.8906   -0.1551 S   0  0  0  0  0  0  0  0  0  0  0  0
   -0.9817    1.0014   -1.3549 O   0  0  0  0  0  0  0  0  0  0  0  0
    1.4363   -1.6992    0.0748 H   0  0  0  0  0  0  0  0  0  0  0  0
    0.6446   -3.0355   -0.4342 H   0  0  0  0  0  0  0  0  0  0  0  0
    0.5393   -1.4122   -2.1214 H   0  0  0  0  0  0  0  0  0  0  0  0
   -1.4223   -2.8110   -2.0089 H   0  0  0  0  0  0  0  0  0  0  0  0
   -1.9806   -1.1747   -2.3521 H   0  0  0  0  0  0  0  0  0  0  0  0
   -1.7194   -2.4170    0.6870 H   0  0  0  0  0  0  0  0  0  0  0  0
    0.8432    2.1460   -0.1330 H   0  0  0  0  0  0  0  0  0  0  0  0
  1  2  1  0
  2  3  1  0
  3  4  1  0
  2  5  1  0
  5  6  1  0
  5  7  2  0
  1  8  1  0
  1  9  1  0
  2 10  1  6
  3 11  1  0
  3 12  1  0
  4 13  1  0
  6 14  1  0
M  END
